@<TRIPOS>MOLECULE
CHEMBL177229
   58    63     0     0     0
SMALL
USER_CHARGES

@<TRIPOS>ATOM
      1 C1         -0.8010   -0.0770   -0.0759 C.ar      1 <0>        -0.0874
      2 C2          0.2049    0.8875   -0.0601 C.ar      1 <0>        -0.0831
      3 C3          1.5184    0.5322   -0.0581 C.ar      1 <0>        -0.0932
      4 C4          1.8732   -0.8283   -0.0720 C.ar      1 <0>         0.1258
      5 C5          0.8487   -1.8072   -0.0881 C.ar      1 <0>        -0.0808
      6 C6         -0.4965   -1.4038   -0.0897 C.ar      1 <0>        -0.1017
      7 C7          1.2057   -3.1684   -0.1020 C.ar      1 <0>        -0.0323
      8 C8          2.5344   -3.4862   -0.0994 C.ar      1 <0>        -0.1735
      9 C9          3.4912   -2.4741   -0.0834 C.ar      1 <0>         0.0806
     10 N1          3.1549   -1.2070   -0.0700 N.ar      1 <0>        -0.4441
     11 C10         4.9517   -2.8455   -0.0803 C.3       1 <0>         0.0426
     12 N2          5.4629   -2.8338   -1.4574 N.4       1 <0>        -0.3804
     13 C11         4.7987   -3.8952   -2.2437 C.3       1 <0>        -0.0133
     14 C12         5.8971   -4.4264   -3.1981 C.3       1 <0>        -0.1395
     15 C13         7.1559   -4.3629   -2.2934 C.3       1 <0>        -0.1438
     16 C14         6.9142   -3.0933   -1.4502 C.3       1 <0>         0.0093
     17 H1          7.4441   -2.2489   -1.8912 H         1 <0>         0.1545
     18 C15         7.3950   -3.3218   -0.0158 C.3       1 <0>         0.1032
     19 N3          8.8472   -3.5149   -0.0125 N.pl3     1 <0>        -0.6664
     20 C16         9.4969   -3.8417    1.1598 C.2       1 <0>         0.6651
     21 N4         10.8221   -4.0097    1.1501 N.pl3     1 <0>        -0.5982
     22 C17        11.4695   -4.3228    2.2579 C.cat     1 <0>         0.7705
     23 N5         10.7722   -4.4749    3.4207 N.pl3     1 <0>        -0.4015
     24 C18         9.4129   -4.3004    3.4202 C.2       1 <0>         0.5323
     25 N6          8.7967   -3.9777    2.2740 N.2       1 <0>        -0.4998
     26 N7          8.9850   -4.5021    4.6556 N.2       1 <0>        -0.4516
     27 C19        10.0224   -4.7998    5.4482 C.2       1 <0>         0.4191
     28 N8         11.1325   -4.7940    4.7347 N.2       1 <0>        -0.2814
     29 C20         9.9375   -5.0889    6.8950 C.2       1 <0>        -0.0163
     30 C21         8.8006   -5.1034    7.6403 C.2       1 <0>        -0.0823
     31 C22         9.1832   -5.4233    8.9580 C.2       1 <0>        -0.2228
     32 C23        10.5209   -5.5865    8.9520 C.2       1 <0>         0.0360
     33 O1         10.9725   -5.3895    7.7031 O.3       1 <0>        -0.1574
     34 N9         12.8290   -4.4939    2.2394 N.pl3     1 <0>        -0.7355
     35 H2         -1.8358    0.2322   -0.0726 H         1 <0>         0.1421
     36 H3         -0.0625    1.9338   -0.0497 H         1 <0>         0.1432
     37 H4          2.2855    1.2924   -0.0461 H         1 <0>         0.1425
     38 H5         -1.2849   -2.1419   -0.1019 H         1 <0>         0.1424
     39 H6          0.4504   -3.9402   -0.1140 H         1 <0>         0.1531
     40 H7          2.8425   -4.5213   -0.1095 H         1 <0>         0.1424
     41 H8          5.5083   -2.1258    0.5200 H         1 <0>         0.1504
     42 H9          5.0722   -3.8425    0.3435 H         1 <0>         0.1493
     43 H10         4.4491   -4.6916   -1.5868 H         1 <0>         0.1376
     44 H11         3.9678   -3.4809   -2.8147 H         1 <0>         0.1402
     45 H12         5.6869   -5.4515   -3.5032 H         1 <0>         0.1245
     46 H13         6.0073   -3.7770   -4.0666 H         1 <0>         0.1047
     47 H14         7.2162   -5.2441   -1.6547 H         1 <0>         0.1053
     48 H15         8.0585   -4.2596   -2.8957 H         1 <0>         0.1180
     49 H16         7.1424   -2.4548    0.5945 H         1 <0>         0.1176
     50 H17         6.9097   -4.2079    0.3932 H         1 <0>         0.1198
     51 H18         9.3520   -3.4130   -0.8345 H         1 <0>         0.4341
     52 H19         7.7980   -4.9073    7.2901 H         1 <0>         0.1698
     53 H20         8.5284   -5.5191    9.8115 H         1 <0>         0.1710
     54 H21        11.1283   -5.8385    9.8088 H         1 <0>         0.2256
     55 H22        13.3203   -4.3850    1.4102 H         1 <0>         0.4504
     56 H23        13.3000   -4.7238    3.0556 H         1 <0>         0.4638
     57 H24         5.2805   -1.9360   -1.8804 H         1 <0>         0.4381
     58 H25        11.3138   -3.9010    0.3210 H         1 <0>         0.4614
@<TRIPOS>BOND
     1    1    6 ar
     2    1    2 ar
     3    1   35 1
     4    2    3 ar
     5    2   36 1
     6    3    4 ar
     7    3   37 1
     8    4   10 ar
     9    4    5 ar
    10    5    6 ar
    11    5    7 ar
    12    6   38 1
    13    7    8 ar
    14    7   39 1
    15    8    9 ar
    16    8   40 1
    17    9   10 ar
    18    9   11 1
    19   11   12 1
    20   11   41 1
    21   11   42 1
    22   12   16 1
    23   12   13 1
    24   12   57 1
    25   13   14 1
    26   13   43 1
    27   13   44 1
    28   14   15 1
    29   14   45 1
    30   14   46 1
    31   15   16 1
    32   15   47 1
    33   15   48 1
    34   16   17 1
    35   16   18 1
    36   18   19 1
    37   18   49 1
    38   18   50 1
    39   19   20 1
    40   19   51 1
    41   20   25 2
    42   20   21 1
    43   21   22 2
    44   21   58 1
    45   22   23 1
    46   22   34 1
    47   23   28 1
    48   23   24 1
    49   24   25 1
    50   24   26 2
    51   26   27 1
    52   27   28 2
    53   27   29 1
    54   29   33 1
    55   29   30 2
    56   30   31 1
    57   30   52 1
    58   31   32 2
    59   31   53 1
    60   32   33 1
    61   32   54 1
    62   34   55 1
    63   34   56 1
@<TRIPOS>MOLECULE
CHEMBL82901
   37    41     0     0     0
SMALL
USER_CHARGES

@<TRIPOS>ATOM
      1 C1         -0.0167    1.3781    0.0096 C.ar      1 <0>        -0.1038
      2 C2          1.1709    2.0855    0.0021 C.ar      1 <0>        -0.1250
      3 C3          2.3773    1.4107   -0.0130 C.ar      1 <0>        -0.0911
      4 C4          2.3960    0.0285   -0.0201 C.ar      1 <0>        -0.1283
      5 C5          1.2084   -0.6789   -0.0117 C.ar      1 <0>        -0.0882
      6 C6          0.0021   -0.0041    0.0020 C.ar      1 <0>        -0.1231
      7 C7          3.7112   -0.7071   -0.0376 C.3       1 <0>         0.1726
      8 N1          4.1518   -0.9524    1.3379 N.pl3     1 <0>        -0.3529
      9 C8          4.9277   -0.1303    2.1054 C.2       1 <0>         0.3423
     10 C9          5.0819   -0.7822    3.3353 C.2       1 <0>        -0.0796
     11 C10         5.8823   -0.1145    4.3640 C.2       1 <0>         0.4105
     12 N2          6.2318   -0.4165    5.5975 N.2       1 <0>        -0.4901
     13 C11         6.9875    0.5660    6.1037 C.2       1 <0>         0.3515
     14 N3          7.1327    1.5143    5.1972 N.2       1 <0>        -0.2863
     15 N4          6.4286    1.1042    4.0577 N.pl3     1 <0>        -0.3712
     16 C12         6.2193    1.6567    2.8279 C.2       1 <0>         0.6972
     17 N5          5.5037    1.0615    1.9049 N.2       1 <0>        -0.5532
     18 N6          6.7787    2.8814    2.5467 N.pl3     1 <0>        -0.7951
     19 C13         7.5675    0.5855    7.4630 C.2       1 <0>         0.0386
     20 C14         8.3314    1.5788    7.9901 C.2       1 <0>        -0.1331
     21 C15         8.6633    1.1832    9.3011 C.2       1 <0>        -0.2207
     22 C16         8.0915   -0.0195    9.5072 C.2       1 <0>        -0.0001
     23 O1          7.4263   -0.3752    8.3965 O.3       1 <0>        -0.1508
     24 N7          4.4156   -1.9432    3.2772 N.2       1 <0>        -0.1611
     25 N8          3.8543   -2.0743    2.1259 N.2       1 <0>        -0.0243
     26 H1         -0.9591    1.9053    0.0259 H         1 <0>         0.1253
     27 H2          1.1563    3.1654    0.0076 H         1 <0>         0.1254
     28 H3          3.3051    1.9634   -0.0196 H         1 <0>         0.1276
     29 H4          1.2231   -1.7588   -0.0176 H         1 <0>         0.1288
     30 H5         -0.9258   -0.5567    0.0082 H         1 <0>         0.1273
     31 H6          3.5884   -1.6586   -0.5549 H         1 <0>         0.1185
     32 H7          4.4573   -0.1052   -0.5563 H         1 <0>         0.1146
     33 H8          7.3113    3.3368    3.2175 H         1 <0>         0.4287
     34 H9          6.6407    3.2897    1.6777 H         1 <0>         0.4325
     35 H10         8.6267    2.4942    7.4990 H         1 <0>         0.1610
     36 H11         9.2630    1.7386   10.0070 H         1 <0>         0.1604
     37 H12         8.1546   -0.5992   10.4163 H         1 <0>         0.2151
@<TRIPOS>BOND
     1    1    6 ar
     2    1    2 ar
     3    1   26 1
     4    2    3 ar
     5    2   27 1
     6    3    4 ar
     7    3   28 1
     8    4    5 ar
     9    4    7 1
    10    5    6 ar
    11    5   29 1
    12    6   30 1
    13    7    8 1
    14    7   31 1
    15    7   32 1
    16    8   25 1
    17    8    9 1
    18    9   17 1
    19    9   10 2
    20   10   11 1
    21   10   24 1
    22   11   15 1
    23   11   12 2
    24   12   13 1
    25   13   14 2
    26   13   19 1
    27   14   15 1
    28   15   16 1
    29   16   17 2
    30   16   18 1
    31   18   33 1
    32   18   34 1
    33   19   23 1
    34   19   20 2
    35   20   21 1
    36   20   35 1
    37   21   22 2
    38   21   36 1
    39   22   23 1
    40   22   37 1
    41   24   25 2
@<TRIPOS>MOLECULE
CHEMBL196259
   40    43     0     0     0
SMALL
USER_CHARGES

@<TRIPOS>ATOM
      1 C1         -0.0178    1.4608    0.0101 C.3       1 <0>         0.0760
      2 N1          0.0021   -0.0041    0.0020 N.pl3     1 <0>        -0.4633
      3 C2          0.0080   -0.8110   -1.1094 C.ar      1 <0>         0.3206
      4 C3          0.0281   -2.1326   -0.6315 C.ar      1 <0>        -0.0987
      5 C4          0.0381   -3.1775   -1.5712 C.ar      1 <0>         0.5168
      6 N2          0.0281   -2.8672   -2.8635 N.ar      1 <0>        -0.5806
      7 C5          0.0092   -1.6094   -3.2647 C.ar      1 <0>         0.3940
      8 N3         -0.0007   -0.5987   -2.4209 N.ar      1 <0>        -0.5492
      9 C6         -0.0008   -1.3198   -4.7435 C.3       1 <0>        -0.0401
     10 C7         -1.4466   -1.2416   -5.2381 C.3       1 <0>        -0.0707
     11 C8         -1.4567   -0.9520   -6.7169 C.ar      1 <0>        -0.0820
     12 C9         -1.4707    0.3556   -7.1651 C.ar      1 <0>        -0.1147
     13 C10        -1.4799    0.6213   -8.5216 C.ar      1 <0>        -0.1192
     14 C11        -1.4747   -0.4207   -9.4301 C.ar      1 <0>        -0.1236
     15 C12        -1.4597   -1.7283   -8.9819 C.ar      1 <0>        -0.1190
     16 C13        -1.4461   -1.9939   -7.6254 C.ar      1 <0>        -0.1142
     17 N4          0.0584   -4.4994   -1.1603 N.pl3     1 <0>        -0.8134
     18 N5          0.0334   -2.0707    0.7215 N.2       1 <0>        -0.4397
     19 C14         0.0240   -0.8193    1.0994 C.2       1 <0>         0.5298
     20 N6          0.0312   -0.3821    2.4217 N.pl3     1 <0>        -0.2371
     21 N7          0.0113    0.9494    2.8644 N.2       1 <0>        -0.2372
     22 C15         0.0262    0.9299    4.1748 C.2       1 <0>         0.0337
     23 C16         0.0555   -0.3905    4.6112 C.2       1 <0>         0.0149
     24 N8          0.0536   -1.1874    3.5707 N.2       1 <0>        -0.1862
     25 H1          1.0048    1.8381    0.0023 H         1 <0>         0.0803
     26 H2         -0.5450    1.8219   -0.8730 H         1 <0>         0.0960
     27 H3         -0.5280    1.8123    0.9069 H         1 <0>         0.1028
     28 H4          0.4992   -0.3697   -4.9311 H         1 <0>         0.0949
     29 H5          0.5218   -2.1163   -5.2733 H         1 <0>         0.0970
     30 H6         -1.9467   -2.1917   -5.0505 H         1 <0>         0.0781
     31 H7         -1.9692   -0.4451   -4.7083 H         1 <0>         0.0766
     32 H8         -1.4748    1.1697   -6.4554 H         1 <0>         0.1225
     33 H9         -1.4916    1.6429   -8.8718 H         1 <0>         0.1213
     34 H10        -1.4826   -0.2131  -10.4899 H         1 <0>         0.1204
     35 H11        -1.4559   -2.5423   -9.6916 H         1 <0>         0.1216
     36 H12        -1.4307   -3.0154   -7.2753 H         1 <0>         0.1233
     37 H13         0.0658   -4.7131   -0.2142 H         1 <0>         0.4207
     38 H14         0.0651   -5.2118   -1.8185 H         1 <0>         0.4126
     39 H15         0.0174    1.8004    4.8140 H         1 <0>         0.2173
     40 H16         0.0732   -0.7084    5.6432 H         1 <0>         0.2178
@<TRIPOS>BOND
     1    1    2 1
     2    1   25 1
     3    1   26 1
     4    1   27 1
     5    2   19 1
     6    2    3 1
     7    3    8 ar
     8    3    4 ar
     9    4    5 ar
    10    4   18 1
    11    5    6 ar
    12    5   17 1
    13    6    7 ar
    14    7    8 ar
    15    7    9 1
    16    9   10 1
    17    9   28 1
    18    9   29 1
    19   10   11 1
    20   10   30 1
    21   10   31 1
    22   11   16 ar
    23   11   12 ar
    24   12   13 ar
    25   12   32 1
    26   13   14 ar
    27   13   33 1
    28   14   15 ar
    29   14   34 1
    30   15   16 ar
    31   15   35 1
    32   16   36 1
    33   17   37 1
    34   17   38 1
    35   18   19 2
    36   19   20 1
    37   20   24 1
    38   20   21 1
    39   21   22 2
    40   22   23 1
    41   22   39 1
    42   23   24 2
    43   23   40 1
@<TRIPOS>MOLECULE
CHEMBL409915
   36    39     0     0     0
SMALL
USER_CHARGES

@<TRIPOS>ATOM
      1 C1         -0.0162    1.3448    0.0094 C.2       1 <0>        -0.2232
      2 C2          1.3230    1.7760   -0.0010 C.2       1 <0>        -0.1329
      3 C3          2.0960    0.6543   -0.0144 C.2       1 <0>         0.0046
      4 O1          1.2786   -0.4173   -0.0124 O.3       1 <0>        -0.1487
      5 C4          0.0021   -0.0041    0.0020 C.2       1 <0>        -0.0068
      6 C5          3.5685    0.6188   -0.0287 C.ar      1 <0>         0.3709
      7 C6          4.2720   -0.3976    0.6491 C.ar      1 <0>        -0.0932
      8 C7          5.6764   -0.3801    0.5997 C.ar      1 <0>         0.3664
      9 N1          6.2890    0.5832   -0.0763 N.ar      1 <0>        -0.5473
     10 C8          5.5916    1.5208   -0.6997 C.ar      1 <0>         0.6030
     11 N2          4.2670    1.5442   -0.6877 N.ar      1 <0>        -0.5431
     12 N3          6.2711    2.5083   -1.3940 N.pl3     1 <0>        -0.8075
     13 N4          6.0948   -1.4687    1.3345 N.am      1 <0>        -0.4704
     14 C9          4.9708   -2.1014    1.7980 C.2       1 <0>         0.2529
     15 N5          3.9089   -1.4696    1.3933 N.2       1 <0>        -0.4172
     16 C10         7.3710   -1.8414    1.5559 C.2       1 <0>         0.7111
     17 O2          8.2839   -1.1914    1.0862 O.2       1 <0>        -0.5073
     18 N6          7.6345   -2.9349    2.2982 N.am      1 <0>        -0.7225
     19 C11         9.0217   -3.3400    2.5389 C.3       1 <0>         0.2236
     20 C12         9.0414   -4.5833    3.3903 C.2       1 <0>        -0.1877
     21 C13         9.0351   -5.8826    3.0041 C.2       1 <0>        -0.1210
     22 C14         9.0577   -6.8696    3.9715 C.2       1 <0>        -0.1663
     23 C15         9.0855   -6.5091    5.2779 C.2       1 <0>        -0.1559
     24 S1          9.0872   -4.7271    5.1692 S.3       1 <0>         0.0591
     25 H1         -0.8933    1.9747    0.0252 H         1 <0>         0.1566
     26 H2          1.6709    2.7985    0.0006 H         1 <0>         0.1575
     27 H3         -0.8669   -0.6453    0.0076 H         1 <0>         0.2113
     28 H4          7.2408    2.5049   -1.4175 H         1 <0>         0.4206
     29 H5          5.7772    3.2032   -1.8567 H         1 <0>         0.4207
     30 H6          4.9676   -2.9922    2.4085 H         1 <0>         0.2317
     31 H7          6.9057   -3.4538    2.6732 H         1 <0>         0.4052
     32 H8          9.5111   -3.5440    1.5865 H         1 <0>         0.0991
     33 H9          9.5501   -2.5381    3.0545 H         1 <0>         0.0916
     34 H10         9.0123   -6.1427    1.9561 H         1 <0>         0.1373
     35 H11         9.0528   -7.9124    3.6907 H         1 <0>         0.1384
     36 H12         9.1056   -7.1369    6.1564 H         1 <0>         0.1895
@<TRIPOS>BOND
     1    1    5 2
     2    1    2 1
     3    1   25 1
     4    2    3 2
     5    2   26 1
     6    3    4 1
     7    3    6 1
     8    4    5 1
     9    5   27 1
    10    6   11 ar
    11    6    7 ar
    12    7   15 1
    13    7    8 ar
    14    8    9 ar
    15    8   13 1
    16    9   10 ar
    17   10   11 ar
    18   10   12 1
    19   12   28 1
    20   12   29 1
    21   13   14 1
    22   13   16 am
    23   14   15 2
    24   14   30 1
    25   16   17 2
    26   16   18 am
    27   18   19 1
    28   18   31 1
    29   19   20 1
    30   19   32 1
    31   19   33 1
    32   20   24 1
    33   20   21 2
    34   21   22 1
    35   21   34 1
    36   22   23 2
    37   22   35 1
    38   23   24 1
    39   23   36 1
@<TRIPOS>MOLECULE
CHEMBL270654
   55    58     0     0     0
SMALL
USER_CHARGES

@<TRIPOS>ATOM
      1 C1         -0.0270    1.5052    0.0152 C.3       1 <0>        -0.0761
      2 C2         -0.0058   -0.0016    0.0059 C.2       1 <0>         0.1018
      3 C3         -0.0010   -0.8138   -1.1343 C.2       1 <0>        -0.2628
      4 C4          0.0195   -2.1035   -0.7278 C.2       1 <0>         0.1215
      5 N1          0.0273   -2.1062    0.6311 N.pl3     1 <0>        -0.3340
      6 N2          0.0168   -0.7731    1.0618 N.2       1 <0>        -0.2866
      7 C5          0.0479   -3.2358    1.4515 C.ar      1 <0>         0.4472
      8 C6          0.5560   -3.1585    2.7443 C.ar      1 <0>        -0.2551
      9 C7          0.5563   -4.3110    3.5266 C.ar      1 <0>         0.4308
     10 N3          0.0745   -5.4391    3.0159 N.ar      1 <0>        -0.5081
     11 C8         -0.4016   -5.4750    1.7799 C.ar      1 <0>         0.4269
     12 N4         -0.4225   -4.3968    1.0098 N.ar      1 <0>        -0.5204
     13 C9         -0.9310   -6.7547    1.2461 C.ar      1 <0>         0.1626
     14 C10        -0.9255   -7.8927    2.0490 C.ar      1 <0>        -0.1105
     15 C11        -1.4227   -9.0796    1.5374 C.ar      1 <0>        -0.0847
     16 C12        -1.9092   -9.0880    0.2383 C.ar      1 <0>        -0.1500
     17 C13        -1.8840   -7.9201   -0.5029 C.ar      1 <0>         0.0956
     18 N5         -1.4104   -6.8037    0.0104 N.ar      1 <0>        -0.4411
     19 N6          1.0549   -4.2815    4.8249 N.am      1 <0>        -0.6539
     20 C14         0.9578   -5.3734    5.6091 C.2       1 <0>         0.5092
     21 O1          0.5203   -6.4092    5.1548 O.2       1 <0>        -0.4528
     22 C15         1.3928   -5.3071    7.0504 C.3       1 <0>        -0.1084
     23 C16         1.1828   -6.6502    7.7008 C.ar      1 <0>        -0.0179
     24 C17        -0.0219   -6.9408    8.3131 C.ar      1 <0>        -0.1226
     25 C18        -0.2146   -8.1728    8.9097 C.ar      1 <0>        -0.0210
     26 C19         0.7974   -9.1144    8.8936 C.ar      1 <0>        -0.6566
     27 C20         2.0019   -8.8241    8.2805 C.ar      1 <0>        -0.0212
     28 C21         2.1930   -7.5936    7.6801 C.ar      1 <0>        -0.1227
     29 S1          0.5523  -10.6843    9.6551 S.o2      1 <0>         2.4994
     30 O2          1.8568  -11.1242   10.0071 O.2       1 <0>        -0.9372
     31 O3         -0.4288  -10.4523   10.6565 O.2       1 <0>        -0.9372
     32 C22        -0.1294  -11.7368    8.3443 C.3       1 <0>        -0.6499
     33 C23         0.0307   -3.3178   -1.6203 C.3       1 <0>        -0.1118
     34 H1          0.9954    1.8830    0.0064 H         1 <0>         0.0834
     35 H2         -0.5554    1.8666   -0.8670 H         1 <0>         0.0838
     36 H3         -0.5362    1.8559    0.9128 H         1 <0>         0.0767
     37 H4         -0.0117   -0.4707   -2.1583 H         1 <0>         0.1588
     38 H5          0.9414   -2.2271    3.1320 H         1 <0>         0.1609
     39 H6         -0.5385   -7.8501    3.0564 H         1 <0>         0.1571
     40 H7         -1.4312   -9.9784    2.1361 H         1 <0>         0.1415
     41 H8         -2.3034   -9.9975   -0.1904 H         1 <0>         0.1409
     42 H9         -2.2619   -7.9229   -1.5146 H         1 <0>         0.1639
     43 H10         1.4724   -3.4751    5.1659 H         1 <0>         0.4254
     44 H11         2.4487   -5.0408    7.0993 H         1 <0>         0.1158
     45 H12         0.8036   -4.5539    7.5735 H         1 <0>         0.1163
     46 H13        -0.8126   -6.2052    8.3257 H         1 <0>         0.1320
     47 H14        -1.1556   -8.3996    9.3887 H         1 <0>         0.1436
     48 H15         2.7926   -9.5596    8.2682 H         1 <0>         0.1437
     49 H16         3.1327   -7.3682    7.1979 H         1 <0>         0.1322
     50 H17         0.5804  -11.7953    7.5192 H         1 <0>         0.1319
     51 H18        -0.3112  -12.7365    8.7388 H         1 <0>         0.1336
     52 H19        -1.0672  -11.3110    7.9873 H         1 <0>         0.1319
     53 H20         1.0609   -3.5966   -1.8416 H         1 <0>         0.0761
     54 H21        -0.4689   -4.1445   -1.1152 H         1 <0>         0.1126
     55 H22        -0.4919   -3.0906   -2.5495 H         1 <0>         0.0853
@<TRIPOS>BOND
     1    1    2 1
     2    1   34 1
     3    1   35 1
     4    1   36 1
     5    2    6 2
     6    2    3 1
     7    3    4 2
     8    3   37 1
     9    4    5 1
    10    4   33 1
    11    5    6 1
    12    5    7 1
    13    7   12 ar
    14    7    8 ar
    15    8    9 ar
    16    8   38 1
    17    9   10 ar
    18    9   19 1
    19   10   11 ar
    20   11   12 ar
    21   11   13 1
    22   13   18 ar
    23   13   14 ar
    24   14   15 ar
    25   14   39 1
    26   15   16 ar
    27   15   40 1
    28   16   17 ar
    29   16   41 1
    30   17   18 ar
    31   17   42 1
    32   19   20 am
    33   19   43 1
    34   20   21 2
    35   20   22 1
    36   22   23 1
    37   22   44 1
    38   22   45 1
    39   23   28 ar
    40   23   24 ar
    41   24   25 ar
    42   24   46 1
    43   25   26 ar
    44   25   47 1
    45   26   27 ar
    46   26   29 1
    47   27   28 ar
    48   27   48 1
    49   28   49 1
    50   29   30 2
    51   29   31 2
    52   29   32 1
    53   32   50 1
    54   32   51 1
    55   32   52 1
    56   33   53 1
    57   33   54 1
    58   33   55 1
@<TRIPOS>MOLECULE
CHEMBL409700
   47    50     0     0     0
SMALL
USER_CHARGES

@<TRIPOS>ATOM
      1 C1         -0.0175    1.5029    0.0166 C.3       1 <0>        -0.0785
      2 C2          0.0028   -0.0040    0.0070 C.2       1 <0>         0.0192
      3 C3         -1.0824   -0.8047    0.0059 C.2       1 <0>        -0.2243
      4 C4         -0.6155   -2.1325   -0.0051 C.2       1 <0>        -0.1126
      5 C5          0.7437   -2.0698   -0.0102 C.2       1 <0>         0.0097
      6 O1          1.1032   -0.7711   -0.0078 O.3       1 <0>        -0.1512
      7 C6          1.6640   -3.2234   -0.0215 C.ar      1 <0>         0.4426
      8 N1          2.9730   -3.0056   -0.0200 N.ar      1 <0>        -0.5164
      9 C7          3.8329   -4.0240   -0.0299 C.ar      1 <0>         0.2833
     10 C8          3.3376   -5.3300   -0.0420 C.ar      1 <0>        -0.2211
     11 C9          1.9566   -5.5156   -0.0432 C.ar      1 <0>         0.4235
     12 N2          1.1603   -4.4527   -0.0274 N.ar      1 <0>        -0.4915
     13 N3          1.4187   -6.7984   -0.0550 N.am      1 <0>        -0.6556
     14 C10         0.0859   -6.9712    0.0470 C.2       1 <0>         0.5021
     15 O2         -0.6514   -6.0084    0.0563 O.2       1 <0>        -0.4486
     16 C11        -0.4881   -8.3608    0.1494 C.3       1 <0>        -0.0917
     17 C12        -1.9893   -8.2779    0.2519 C.ar      1 <0>        -0.1134
     18 C13        -2.5920   -8.1811    1.4925 C.ar      1 <0>        -0.0615
     19 C14        -3.9680   -8.1055    1.5893 C.ar      1 <0>        -0.1501
     20 C15        -4.7451   -8.1262    0.4402 C.ar      1 <0>         0.1320
     21 C16        -4.1379   -8.2229   -0.8034 C.ar      1 <0>        -0.2068
     22 C17        -2.7613   -8.2931   -0.8950 C.ar      1 <0>        -0.0610
     23 O3         -6.0990   -8.0523    0.5328 O.3       1 <0>        -0.3176
     24 C18        -6.8354   -8.0791   -0.6916 C.3       1 <0>         0.0265
     25 C19         5.2902   -3.7748   -0.0287 C.2       1 <0>         0.1217
     26 N4          6.2921   -4.6428   -0.0432 N.2       1 <0>        -0.4746
     27 C20         7.5397   -4.2436   -0.0394 C.2       1 <0>         0.0212
     28 C21         7.8256   -2.9122   -0.0202 C.2       1 <0>        -0.1942
     29 S1          6.1757   -2.2215   -0.0151 S.3       1 <0>         0.0952
     30 H1          1.0052    1.8800    0.0101 H         1 <0>         0.0792
     31 H2         -0.5439    1.8648   -0.8666 H         1 <0>         0.0905
     32 H3         -0.5284    1.8536    0.9133 H         1 <0>         0.0907
     33 H4         -2.1146   -0.4872    0.0127 H         1 <0>         0.1562
     34 H5         -1.2194   -3.0279   -0.0084 H         1 <0>         0.1656
     35 H6          4.0091   -6.1758   -0.0506 H         1 <0>         0.1641
     36 H7          2.0027   -7.5685   -0.1367 H         1 <0>         0.4250
     37 H8         -0.2155   -8.9328   -0.7375 H         1 <0>         0.1079
     38 H9         -0.0900   -8.8539    1.0362 H         1 <0>         0.1091
     39 H10        -1.9866   -8.1651    2.3867 H         1 <0>         0.1277
     40 H11        -4.4384   -8.0306    2.5586 H         1 <0>         0.1317
     41 H12        -4.7408   -8.2392   -1.6994 H         1 <0>         0.1287
     42 H13        -2.2879   -8.3639   -1.8631 H         1 <0>         0.1231
     43 H14        -7.9017   -8.0134   -0.4758 H         1 <0>         0.1011
     44 H15        -6.5378   -7.2345   -1.3131 H         1 <0>         0.0564
     45 H16        -6.6282   -9.0097   -1.2199 H         1 <0>         0.0560
     46 H17         8.3400   -4.9688   -0.0511 H         1 <0>         0.1757
     47 H18         8.7828   -2.4121   -0.0138 H         1 <0>         0.2051
@<TRIPOS>BOND
     1    1    2 1
     2    1   30 1
     3    1   31 1
     4    1   32 1
     5    2    6 1
     6    2    3 2
     7    3    4 1
     8    3   33 1
     9    4    5 2
    10    4   34 1
    11    5    6 1
    12    5    7 1
    13    7   12 ar
    14    7    8 ar
    15    8    9 ar
    16    9   10 ar
    17    9   25 1
    18   10   11 ar
    19   10   35 1
    20   11   12 ar
    21   11   13 1
    22   13   14 am
    23   13   36 1
    24   14   15 2
    25   14   16 1
    26   16   17 1
    27   16   37 1
    28   16   38 1
    29   17   22 ar
    30   17   18 ar
    31   18   19 ar
    32   18   39 1
    33   19   20 ar
    34   19   40 1
    35   20   21 ar
    36   20   23 1
    37   21   22 ar
    38   21   41 1
    39   22   42 1
    40   23   24 1
    41   24   43 1
    42   24   44 1
    43   24   45 1
    44   25   29 1
    45   25   26 2
    46   26   27 1
    47   27   28 2
    48   27   46 1
    49   28   29 1
    50   28   47 1
@<TRIPOS>MOLECULE
CHEMBL604653
   55    58     0     0     0
SMALL
USER_CHARGES

@<TRIPOS>ATOM
      1 C1         -2.7629   -2.8833   -0.5812 C.3       1 <0>         0.0217
      2 O1         -1.9959   -2.0523    0.2924 O.3       1 <0>        -0.3101
      3 C2         -1.1293   -2.6758    1.1345 C.ar      1 <0>         0.1395
      4 C3         -1.0170   -4.0583    1.1147 C.ar      1 <0>        -0.1851
      5 C4         -0.1371   -4.6922    1.9695 C.ar      1 <0>        -0.0822
      6 C5          0.6353   -3.9454    2.8493 C.ar      1 <0>         0.0722
      7 C6          0.5223   -2.5615    2.8686 C.ar      1 <0>        -0.1053
      8 C7         -0.3539   -1.9286    2.0091 C.ar      1 <0>        -0.1309
      9 N1          1.5275   -4.5876    3.7169 N.am      1 <0>        -0.6017
     10 C8          2.2480   -3.8658    4.5980 C.2       1 <0>         0.6587
     11 O2          2.0425   -2.6726    4.7191 O.2       1 <0>        -0.5211
     12 N2          3.2032   -4.4701    5.3507 N.am      1 <0>        -0.4403
     13 N3          3.9330   -3.7694    6.1509 N.2       1 <0>         0.2819
     14 N4          3.8813   -2.4811    6.1097 N.pl3     1 <0>        -0.2763
     15 C9          4.5496   -1.7279    7.0672 C.ar      1 <0>         0.5296
     16 N5          5.2385   -2.3570    8.0104 N.ar      1 <0>        -0.5712
     17 C10         5.8944   -1.6822    8.9472 C.ar      1 <0>         0.5402
     18 C11         5.8455   -0.2771    8.9219 C.ar      1 <0>        -0.0560
     19 C12         5.1032    0.3449    7.9040 C.ar      1 <0>         0.3168
     20 N6          4.4813   -0.4089    7.0035 N.ar      1 <0>        -0.5128
     21 N7          5.2260    1.6948    8.1168 N.pl3     1 <0>        -0.4494
     22 C13         6.0112    1.8649    9.2189 C.2       1 <0>         0.3202
     23 N8          6.3734    0.7070    9.6895 N.2       1 <0>        -0.4575
     24 C14         4.6246    2.7582    7.3084 C.3       1 <0>         0.3065
     25 C15         5.5389    3.0842    6.1079 C.3       1 <0>         0.0751
     26 H1          5.1668    2.6136    5.1978 H         1 <0>         0.1005
     27 C16         5.4249    4.6304    6.0170 C.3       1 <0>         0.0489
     28 H2          4.5397    4.9266    5.4543 H         1 <0>         0.0962
     29 C17         5.2856    5.0035    7.5144 C.3       1 <0>         0.0496
     30 H3          6.2669    5.0436    7.9872 H         1 <0>         0.1027
     31 O3          4.4968    3.9507    8.0915 O.3       1 <0>        -0.3415
     32 C18         4.5704    6.3479    7.6624 C.3       1 <0>         0.0769
     33 O4          4.5546    6.7301    9.0392 O.3       1 <0>        -0.5637
     34 O5          6.6062    5.2015    5.4508 O.3       1 <0>        -0.5421
     35 O6          6.8853    2.6840    6.3707 O.3       1 <0>        -0.5394
     36 N9          6.6099   -2.3471    9.9273 N.pl3     1 <0>        -0.7936
     37 H4         -3.3706   -3.5685    0.0099 H         1 <0>         0.0608
     38 H5         -3.4119   -2.2612   -1.1975 H         1 <0>         0.1084
     39 H6         -2.0911   -3.4542   -1.2222 H         1 <0>         0.0607
     40 H7         -1.6180   -4.6390    0.4306 H         1 <0>         0.1441
     41 H8         -0.0500   -5.7686    1.9542 H         1 <0>         0.1386
     42 H9          1.1224   -1.9800    3.5528 H         1 <0>         0.1800
     43 H10        -0.4385   -0.8520    2.0207 H         1 <0>         0.1438
     44 H11         1.6270   -5.5519    3.6837 H         1 <0>         0.4302
     45 H12         3.3758   -2.0381    5.4102 H         1 <0>         0.4549
     46 H13         6.2914    2.8196    9.6389 H         1 <0>         0.2317
     47 H14         3.6438    2.4424    6.9528 H         1 <0>         0.1421
     48 H15         5.0964    7.1052    7.0811 H         1 <0>         0.0672
     49 H16         3.5468    6.2569    7.2988 H         1 <0>         0.0603
     50 H17         4.1157    7.5751    9.2079 H         1 <0>         0.3899
     51 H18         6.5796    6.1651    5.3748 H         1 <0>         0.3956
     52 H19         7.4988    2.8676    5.6461 H         1 <0>         0.4000
     53 H20         6.6362   -3.3167    9.9350 H         1 <0>         0.4193
     54 H21         7.0852   -1.8436   10.6067 H         1 <0>         0.4317
     55 H22         3.3367   -5.4288    5.2866 H         1 <0>         0.4837
@<TRIPOS>BOND
     1    1    2 1
     2    1   37 1
     3    1   38 1
     4    1   39 1
     5    2    3 1
     6    3    8 ar
     7    3    4 ar
     8    4    5 ar
     9    4   40 1
    10    5    6 ar
    11    5   41 1
    12    6    7 ar
    13    6    9 1
    14    7    8 ar
    15    7   42 1
    16    8   43 1
    17    9   10 am
    18    9   44 1
    19   10   11 2
    20   10   12 am
    21   12   13 2
    22   12   55 1
    23   13   14 1
    24   14   15 1
    25   14   45 1
    26   15   20 ar
    27   15   16 ar
    28   16   17 ar
    29   17   18 ar
    30   17   36 1
    31   18   23 1
    32   18   19 ar
    33   19   20 ar
    34   19   21 1
    35   21   22 1
    36   21   24 1
    37   22   23 2
    38   22   46 1
    39   24   31 1
    40   24   25 1
    41   24   47 1
    42   25   26 1
    43   25   27 1
    44   25   35 1
    45   27   28 1
    46   27   29 1
    47   27   34 1
    48   29   30 1
    49   29   31 1
    50   29   32 1
    51   32   33 1
    52   32   48 1
    53   32   49 1
    54   33   50 1
    55   34   51 1
    56   35   52 1
    57   36   53 1
    58   36   54 1
@<TRIPOS>MOLECULE
CHEMBL406921
   57    60     0     0     0
SMALL
USER_CHARGES

@<TRIPOS>ATOM
      1 C1         -0.0174    1.5029    0.0163 C.3       1 <0>        -0.0845
      2 C2          0.0028   -0.0040    0.0067 C.2       1 <0>         0.0364
      3 C3         -1.0824   -0.8047    0.0055 C.2       1 <0>        -0.2288
      4 C4         -0.6156   -2.1325   -0.0046 C.2       1 <0>        -0.1078
      5 C5          0.7438   -2.0698   -0.0090 C.2       1 <0>         0.0006
      6 O1          1.1033   -0.7711   -0.0079 O.3       1 <0>        -0.1494
      7 C6          1.6639   -3.2233   -0.0197 C.ar      1 <0>         0.4690
      8 N1          1.1612   -4.4528   -0.0311 N.ar      1 <0>        -0.5106
      9 C7          1.9607   -5.5134   -0.0409 C.ar      1 <0>         0.4220
     10 C8          3.3411   -5.3227   -0.0390 C.ar      1 <0>        -0.2526
     11 C9          3.8312   -4.0210   -0.0269 C.ar      1 <0>         0.4648
     12 N2          2.9741   -3.0063   -0.0230 N.ar      1 <0>        -0.5345
     13 N3          5.2072   -3.7839   -0.0245 N.pl3     1 <0>        -0.3398
     14 C10         5.8270   -2.6608   -0.4732 C.2       1 <0>         0.1161
     15 C11         7.1571   -2.8288   -0.2951 C.2       1 <0>        -0.2536
     16 C12         7.3603   -4.0894    0.2785 C.2       1 <0>         0.1124
     17 N4          6.1949   -4.6588    0.4463 N.2       1 <0>        -0.2889
     18 C13         8.6944   -4.6863    0.6461 C.3       1 <0>        -0.0794
     19 C14         5.1541   -1.4481   -1.0627 C.3       1 <0>        -0.0901
     20 N5          1.4270   -6.7978   -0.0524 N.am      1 <0>        -0.6328
     21 C15         0.0948   -6.9750    0.0491 C.2       1 <0>         0.4994
     22 O2         -0.6457   -6.0146    0.0576 O.2       1 <0>        -0.4531
     23 C16        -0.4747   -8.3664    0.1520 C.3       1 <0>        -0.0349
     24 N6         -1.9383   -8.2904    0.2514 N.4       1 <0>        -0.3538
     25 C17        -2.4649   -9.6355    0.5537 C.3       1 <0>        -0.0043
     26 C18        -3.8354   -9.5007    1.1700 C.3       1 <0>        -0.1856
     27 C19        -4.9431   -9.5584    0.1048 C.3       1 <0>         0.0457
     28 O3         -4.5996   -8.8185   -1.0834 O.3       1 <0>        -0.3719
     29 C20        -3.9746   -7.5743   -0.8886 C.3       1 <0>         0.0567
     30 C21        -2.4456   -7.7614   -0.9447 C.3       1 <0>        -0.0827
     31 H1          1.0052    1.8801    0.0100 H         1 <0>         0.0823
     32 H2         -0.5437    1.8648   -0.8670 H         1 <0>         0.0950
     33 H3         -0.5285    1.8536    0.9129 H         1 <0>         0.0947
     34 H4         -2.1146   -0.4871    0.0115 H         1 <0>         0.1591
     35 H5         -1.2194   -3.0278   -0.0078 H         1 <0>         0.1616
     36 H6          4.0152   -6.1665   -0.0464 H         1 <0>         0.1657
     37 H7          7.9270   -2.1159   -0.5509 H         1 <0>         0.1635
     38 H8          8.9433   -4.4154    1.6721 H         1 <0>         0.0866
     39 H9          8.6432   -5.7716    0.5591 H         1 <0>         0.0786
     40 H10         9.4615   -4.3036   -0.0271 H         1 <0>         0.0875
     41 H11         4.9184   -0.7408   -0.2675 H         1 <0>         0.0904
     42 H12         5.8224   -0.9758   -1.7828 H         1 <0>         0.0872
     43 H13         4.2348   -1.7505   -1.5642 H         1 <0>         0.0768
     44 H14         2.0136   -7.5661   -0.1335 H         1 <0>         0.4339
     45 H15        -0.1999   -8.9380   -0.7345 H         1 <0>         0.1675
     46 H16        -0.0753   -8.8577    1.0393 H         1 <0>         0.1687
     47 H17        -2.5344  -10.2151   -0.3668 H         1 <0>         0.1419
     48 H18        -1.7982  -10.1391    1.2537 H         1 <0>         0.1405
     49 H19        -3.9857  -10.3105    1.8840 H         1 <0>         0.1286
     50 H20        -3.8969   -8.5480    1.6961 H         1 <0>         0.0888
     51 H21        -5.1190  -10.5995   -0.1659 H         1 <0>         0.1118
     52 H22        -5.8597   -9.1450    0.5256 H         1 <0>         0.0787
     53 H23        -4.2860   -6.8836   -1.6722 H         1 <0>         0.1326
     54 H24        -4.2569   -7.1733    0.0849 H         1 <0>         0.0756
     55 H25        -1.9767   -6.7954   -1.1323 H         1 <0>         0.1574
     56 H26        -2.2008   -8.4378   -1.7637 H         1 <0>         0.1355
     57 H27        -2.1804   -7.6702    1.0095 H         1 <0>         0.4251
@<TRIPOS>BOND
     1    1    2 1
     2    1   31 1
     3    1   32 1
     4    1   33 1
     5    2    6 1
     6    2    3 2
     7    3    4 1
     8    3   34 1
     9    4    5 2
    10    4   35 1
    11    5    6 1
    12    5    7 1
    13    7   12 ar
    14    7    8 ar
    15    8    9 ar
    16    9   10 ar
    17    9   20 1
    18   10   11 ar
    19   10   36 1
    20   11   12 ar
    21   11   13 1
    22   13   17 1
    23   13   14 1
    24   14   15 2
    25   14   19 1
    26   15   16 1
    27   15   37 1
    28   16   17 2
    29   16   18 1
    30   18   38 1
    31   18   39 1
    32   18   40 1
    33   19   41 1
    34   19   42 1
    35   19   43 1
    36   20   21 am
    37   20   44 1
    38   21   22 2
    39   21   23 1
    40   23   24 1
    41   23   45 1
    42   23   46 1
    43   24   30 1
    44   24   25 1
    45   24   57 1
    46   25   26 1
    47   25   47 1
    48   25   48 1
    49   26   27 1
    50   26   49 1
    51   26   50 1
    52   27   28 1
    53   27   51 1
    54   27   52 1
    55   28   29 1
    56   29   30 1
    57   29   53 1
    58   29   54 1
    59   30   55 1
    60   30   56 1
@<TRIPOS>MOLECULE
CHEMBL464928
   55    59     0     0     0
SMALL
USER_CHARGES

@<TRIPOS>ATOM
      1 C1         -0.0173    1.4248    0.0099 C.3       1 <0>         0.0265
      2 O1          0.0021   -0.0041    0.0020 O.3       1 <0>        -0.3121
      3 C2          0.6058   -0.6071   -1.0557 C.ar      1 <0>         0.1487
      4 C3          1.1730    0.1617   -2.0626 C.ar      1 <0>        -0.2166
      5 C4          1.7866   -0.4501   -3.1387 C.ar      1 <0>        -0.0583
      6 C5          1.8376   -1.8288   -3.2160 C.ar      1 <0>        -0.1693
      7 C6          1.2718   -2.6028   -2.2116 C.ar      1 <0>         0.1825
      8 C7          0.6605   -1.9901   -1.1269 C.ar      1 <0>        -0.1707
      9 N1          1.3231   -4.0010   -2.2904 N.am      1 <0>        -0.4625
     10 C8          1.9103   -4.7312   -3.3087 C.ar      1 <0>         0.3948
     11 C9          1.7334   -6.0841   -2.9900 C.ar      1 <0>        -0.0671
     12 C10         2.2333   -7.0423   -3.8543 C.ar      1 <0>         0.2219
     13 N2          2.8616   -6.6467   -4.9528 N.ar      1 <0>        -0.5438
     14 C11         3.0131   -5.3594   -5.2268 C.ar      1 <0>         0.5866
     15 N3          2.5489   -4.4117   -4.4255 N.ar      1 <0>        -0.5560
     16 N4          3.6769   -4.9928   -6.3872 N.pl3     1 <0>        -0.6864
     17 C12         4.1987   -6.0226   -7.2891 C.3       1 <0>         0.1930
     18 C13         4.8711   -5.3652   -8.4667 C.ar      1 <0>         0.1011
     19 C14         6.2383   -5.1620   -8.4468 C.ar      1 <0>        -0.1501
     20 C15         6.8471   -4.5564   -9.5351 C.ar      1 <0>        -0.0760
     21 C16         6.0545   -4.1761  -10.6075 C.ar      1 <0>        -0.1628
     22 C17         4.6939   -4.4118  -10.5562 C.ar      1 <0>         0.1002
     23 N5          4.1494   -4.9954   -9.5063 N.ar      1 <0>        -0.4674
     24 N6          1.0407   -6.1257   -1.7818 N.am      1 <0>        -0.5200
     25 C18         0.8143   -4.8581   -1.3849 C.2       1 <0>         0.6896
     26 O2          0.2354   -4.5365   -0.3642 O.2       1 <0>        -0.5087
     27 C19         0.6343   -7.3369   -1.0648 C.3       1 <0>         0.1778
     28 C20         1.7275   -7.7473   -0.1121 C.ar      1 <0>        -0.1996
     29 C21         2.7280   -8.6057   -0.5343 C.ar      1 <0>         0.1496
     30 C22         3.7319   -8.9822    0.3420 C.ar      1 <0>        -0.1673
     31 C23         3.7352   -8.5012    1.6376 C.ar      1 <0>        -0.0483
     32 C24         2.7365   -7.6445    2.0604 C.ar      1 <0>        -0.1681
     33 C25         1.7350   -7.2618    1.1841 C.ar      1 <0>         0.1570
     34 F1          0.7623   -6.4195    1.5958 F         1 <0>        -0.1114
     35 F2          2.7247   -9.0763   -1.8007 F         1 <0>        -0.1265
     36 H1          1.0053    1.8021    0.0021 H         1 <0>         0.0569
     37 H2         -0.5445    1.7859   -0.8732 H         1 <0>         0.0571
     38 H3         -0.5275    1.7763    0.9067 H         1 <0>         0.1023
     39 H4          1.1343    1.2395   -2.0049 H         1 <0>         0.1325
     40 H5          2.2270    0.1502   -3.9210 H         1 <0>         0.1343
     41 H6          2.3175   -2.3046   -4.0584 H         1 <0>         0.1542
     42 H7          0.2239   -2.5899   -0.3421 H         1 <0>         0.1648
     43 H8          2.1141   -8.0936   -3.6377 H         1 <0>         0.1802
     44 H9          3.7960   -4.0544   -6.6020 H         1 <0>         0.4163
     45 H10         4.9216   -6.6401   -6.7560 H         1 <0>         0.0875
     46 H11         3.3776   -6.6469   -7.6415 H         1 <0>         0.0895
     47 H12         6.8246   -5.4708   -7.5940 H         1 <0>         0.1382
     48 H13         7.9132   -4.3845   -9.5472 H         1 <0>         0.1382
     49 H14         6.4950   -3.7015  -11.4718 H         1 <0>         0.1384
     50 H15         4.0697   -4.1186  -11.3874 H         1 <0>         0.1596
     51 H16        -0.2797   -7.1383   -0.5052 H         1 <0>         0.1164
     52 H17         0.4553   -8.1397   -1.7800 H         1 <0>         0.1120
     53 H18         4.5124   -9.6522    0.0129 H         1 <0>         0.1469
     54 H19         4.5186   -8.7954    2.3204 H         1 <0>         0.1475
     55 H20         2.7397   -7.2698    3.0734 H         1 <0>         0.1467
@<TRIPOS>BOND
     1    1    2 1
     2    1   36 1
     3    1   37 1
     4    1   38 1
     5    2    3 1
     6    3    8 ar
     7    3    4 ar
     8    4    5 ar
     9    4   39 1
    10    5    6 ar
    11    5   40 1
    12    6    7 ar
    13    6   41 1
    14    7    8 ar
    15    7    9 1
    16    8   42 1
    17    9   25 am
    18    9   10 1
    19   10   15 ar
    20   10   11 ar
    21   11   12 ar
    22   11   24 1
    23   12   13 ar
    24   12   43 1
    25   13   14 ar
    26   14   15 ar
    27   14   16 1
    28   16   17 1
    29   16   44 1
    30   17   18 1
    31   17   45 1
    32   17   46 1
    33   18   23 ar
    34   18   19 ar
    35   19   20 ar
    36   19   47 1
    37   20   21 ar
    38   20   48 1
    39   21   22 ar
    40   21   49 1
    41   22   23 ar
    42   22   50 1
    43   24   25 am
    44   24   27 1
    45   25   26 2
    46   27   28 1
    47   27   51 1
    48   27   52 1
    49   28   33 ar
    50   28   29 ar
    51   29   30 ar
    52   29   35 1
    53   30   31 ar
    54   30   53 1
    55   31   32 ar
    56   31   54 1
    57   32   33 ar
    58   32   55 1
    59   33   34 1
@<TRIPOS>MOLECULE
CHEMBL360136
   40    43     0     0     0
SMALL
USER_CHARGES

@<TRIPOS>ATOM
      1 C1         -0.0187    1.5258    0.0104 C.3       1 <0>        -0.1401
      2 C2          0.0021   -0.0041    0.0020 C.3       1 <0>         0.2931
      3 C3          0.7140   -0.4917    1.1946 C.1       1 <0>        -0.1369
      4 C4          1.2818   -0.8806    2.1457 C.1       1 <0>        -0.0917
      5 C5          1.9744   -1.3550    3.3058 C.2       1 <0>         0.2337
      6 C6          2.4805   -0.4579    4.2000 C.2       1 <0>         0.0245
      7 N1          3.1402   -0.9025    5.3052 N.pl3     1 <0>        -0.2407
      8 C7          3.2880   -2.2471    5.5064 C.2       1 <0>         0.2081
      9 C8          2.7469   -3.1474    4.5539 C.2       1 <0>         0.4821
     10 N2          2.1116   -2.6778    3.5005 N.2       1 <0>        -0.5096
     11 N3          2.8828   -4.5151    4.7329 N.pl3     1 <0>        -0.8045
     12 N4          3.9567   -2.4127    6.6360 N.2       1 <0>        -0.4937
     13 C9          4.2437   -1.2234    7.1676 C.2       1 <0>         0.3293
     14 N5          3.7629   -0.2684    6.3864 N.2       1 <0>        -0.2815
     15 C10         4.9818   -1.0060    8.4294 C.2       1 <0>         0.0431
     16 C11         5.2757    0.1999    8.9840 C.2       1 <0>        -0.1379
     17 C12         5.9843   -0.0623   10.1734 C.2       1 <0>        -0.2181
     18 C13         6.0869   -1.4013   10.2847 C.2       1 <0>        -0.0060
     19 O1          5.4752   -1.9683    9.2325 O.3       1 <0>        -0.1540
     20 C14         0.7074   -0.4901   -1.2379 C.ar      1 <0>        -0.0692
     21 C15         1.7179    0.2601   -1.8197 C.ar      1 <0>        -0.1582
     22 C16         2.3422   -0.2176   -2.9564 C.ar      1 <0>         0.1033
     23 N6          1.9865   -1.3713   -3.4870 N.ar      1 <0>        -0.4804
     24 C17         1.0300   -2.1110   -2.9608 C.ar      1 <0>         0.1056
     25 C18         0.3653   -1.7007   -1.8206 C.ar      1 <0>        -0.1592
     26 O2         -1.3386   -0.4987    0.0122 O.3       1 <0>        -0.5323
     27 H1          1.0039    1.9031    0.0027 H         1 <0>         0.0821
     28 H2         -0.5459    1.8868   -0.8726 H         1 <0>         0.0822
     29 H3         -0.5289    1.8773    0.9072 H         1 <0>         0.0782
     30 H4          2.3588    0.6020    4.0318 H         1 <0>         0.1867
     31 H5          3.3489   -4.8585    5.5111 H         1 <0>         0.4251
     32 H6          2.5117   -5.1289    4.0798 H         1 <0>         0.4197
     33 H7          5.0165    1.1711    8.5892 H         1 <0>         0.1604
     34 H8          6.3722    0.6712   10.8647 H         1 <0>         0.1599
     35 H9          6.5759   -1.9306   11.0892 H         1 <0>         0.2145
     36 H10         2.0133    1.2060   -1.3902 H         1 <0>         0.1416
     37 H11         3.1302    0.3607   -3.4156 H         1 <0>         0.1605
     38 H12         0.7658   -3.0503   -3.4237 H         1 <0>         0.1604
     39 H13        -0.4138   -2.3133   -1.3915 H         1 <0>         0.1360
     40 H14        -1.4018   -1.4636    0.0076 H         1 <0>         0.3841
@<TRIPOS>BOND
     1    1    2 1
     2    1   27 1
     3    1   28 1
     4    1   29 1
     5    2    3 1
     6    2   20 1
     7    2   26 1
     8    3    4 3
     9    4    5 1
    10    5   10 1
    11    5    6 2
    12    6    7 1
    13    6   30 1
    14    7   14 1
    15    7    8 1
    16    8    9 1
    17    8   12 2
    18    9   10 2
    19    9   11 1
    20   11   31 1
    21   11   32 1
    22   12   13 1
    23   13   14 2
    24   13   15 1
    25   15   19 1
    26   15   16 2
    27   16   17 1
    28   16   33 1
    29   17   18 2
    30   17   34 1
    31   18   19 1
    32   18   35 1
    33   20   25 ar
    34   20   21 ar
    35   21   22 ar
    36   21   36 1
    37   22   23 ar
    38   22   37 1
    39   23   24 ar
    40   24   25 ar
    41   24   38 1
    42   25   39 1
    43   26   40 1
@<TRIPOS>MOLECULE
CHEMBL605667
   46    49     0     0     0
SMALL
USER_CHARGES

@<TRIPOS>ATOM
      1 C1         -0.0163    1.3513    0.0095 C.2       1 <0>        -0.1576
      2 C2          1.1833    2.0380    0.0017 C.2       1 <0>        -0.1500
      3 C3          2.3426    1.3358   -0.0131 C.2       1 <0>        -0.1425
      4 S1          1.7535   -0.3495   -0.0166 S.3       1 <0>         0.0398
      5 C4          0.0021   -0.0041    0.0020 C.2       1 <0>        -0.1707
      6 C5          3.7608    1.8454   -0.0244 C.3       1 <0>        -0.0356
      7 C6          4.2547    2.0106    1.4143 C.3       1 <0>         0.0832
      8 O1          5.5995    2.4938    1.4036 O.3       1 <0>        -0.2824
      9 C7          6.1902    2.6958    2.6063 C.ar      1 <0>         0.5706
     10 N1          5.5024    2.4335    3.7086 N.ar      1 <0>        -0.6304
     11 C8          6.0367    2.6149    4.9112 C.ar      1 <0>         0.5429
     12 C9          7.3556    3.0940    4.9949 C.ar      1 <0>        -0.1375
     13 C10         8.0445    3.3578    3.7999 C.ar      1 <0>         0.3541
     14 N2          7.4332    3.1421    2.6390 N.ar      1 <0>        -0.5521
     15 N3          9.2871    3.8060    4.1702 N.pl3     1 <0>        -0.4687
     16 C11         9.3317    3.8074    5.5336 C.2       1 <0>         0.2572
     17 N4          8.1977    3.3895    6.0153 N.2       1 <0>        -0.4529
     18 C12        10.3681    4.2085    3.2671 C.3       1 <0>         0.3154
     19 C13        11.2591    2.9926    2.9062 C.3       1 <0>         0.0777
     20 H1         11.3806    2.3312    3.7641 H         1 <0>         0.0908
     21 C14        12.6006    3.6716    2.5377 C.3       1 <0>         0.0451
     22 H2         13.4394    3.0985    2.9328 H         1 <0>         0.0878
     23 C15        12.5238    5.0529    3.2164 C.3       1 <0>         0.0527
     24 H3         12.5512    5.8388    2.4616 H         1 <0>         0.0991
     25 O2         11.2797    5.1078    3.9342 O.3       1 <0>        -0.3481
     26 C16        13.6953    5.2220    4.1860 C.3       1 <0>         0.0773
     27 O3         13.6822    6.5464    4.7225 O.3       1 <0>        -0.5628
     28 O4         12.7167    3.8134    1.1205 O.3       1 <0>        -0.5351
     29 O5         10.7228    2.2812    1.7889 O.3       1 <0>        -0.5200
     30 N5          5.3108    2.3387    6.0563 N.pl3     1 <0>        -0.8124
     31 H4         -0.9542    1.8866    0.0258 H         1 <0>         0.1349
     32 H5          1.1967    3.1179    0.0070 H         1 <0>         0.1347
     33 H6         -0.8275   -0.6955    0.0065 H         1 <0>         0.1863
     34 H7          4.3986    1.1333   -0.5480 H         1 <0>         0.0930
     35 H8          3.7967    2.8084   -0.5337 H         1 <0>         0.1001
     36 H9          3.6169    2.7226    1.9379 H         1 <0>         0.0759
     37 H10         4.2187    1.0476    1.9236 H         1 <0>         0.0748
     38 H11        10.1825    4.1107    6.1256 H         1 <0>         0.2235
     39 H12         9.9627    4.6709    2.3671 H         1 <0>         0.1251
     40 H13        13.6024    4.5003    4.9975 H         1 <0>         0.0591
     41 H14        14.6328    5.0540    3.6559 H         1 <0>         0.0661
     42 H15        14.3988    6.7250    5.3467 H         1 <0>         0.3859
     43 H16        13.5390    4.2333    0.8333 H         1 <0>         0.3858
     44 H17        11.2455    1.5116    1.5251 H         1 <0>         0.3871
     45 H18         4.4013    2.0088    5.9862 H         1 <0>         0.4112
     46 H19         5.7114    2.4751    6.9291 H         1 <0>         0.4217
@<TRIPOS>BOND
     1    1    5 2
     2    1    2 1
     3    1   31 1
     4    2    3 2
     5    2   32 1
     6    3    4 1
     7    3    6 1
     8    4    5 1
     9    5   33 1
    10    6    7 1
    11    6   34 1
    12    6   35 1
    13    7    8 1
    14    7   36 1
    15    7   37 1
    16    8    9 1
    17    9   14 ar
    18    9   10 ar
    19   10   11 ar
    20   11   12 ar
    21   11   30 1
    22   12   17 1
    23   12   13 ar
    24   13   14 ar
    25   13   15 1
    26   15   16 1
    27   15   18 1
    28   16   17 2
    29   16   38 1
    30   18   25 1
    31   18   19 1
    32   18   39 1
    33   19   20 1
    34   19   21 1
    35   19   29 1
    36   21   22 1
    37   21   23 1
    38   21   28 1
    39   23   24 1
    40   23   25 1
    41   23   26 1
    42   26   27 1
    43   26   40 1
    44   26   41 1
    45   27   42 1
    46   28   43 1
    47   29   44 1
    48   30   45 1
    49   30   46 1
@<TRIPOS>MOLECULE
CHEMBL16687
   28    31     0     0     0
SMALL
USER_CHARGES

@<TRIPOS>ATOM
      1 C1         -0.0162    1.3433    0.0094 C.2       1 <0>        -0.2195
      2 C2          1.3252    1.7744   -0.0011 C.2       1 <0>        -0.1351
      3 C3          2.0962    0.6548   -0.0144 C.2       1 <0>         0.0399
      4 O1          1.2797   -0.4166   -0.0124 O.3       1 <0>        -0.1525
      5 C4          0.0021   -0.0041    0.0020 C.2       1 <0>        -0.0023
      6 C5          3.5737    0.6193   -0.0292 C.2       1 <0>         0.3445
      7 N1          4.3226   -0.4905   -0.0476 N.2       1 <0>        -0.5018
      8 C6          5.5962   -0.1641   -0.0567 C.2       1 <0>         0.3614
      9 C7          6.8502   -0.9263   -0.0770 C.ar      1 <0>        -0.1117
     10 C8          6.8690   -2.3192   -0.0918 C.ar      1 <0>        -0.0298
     11 C9          8.0788   -2.9807   -0.1111 C.ar      1 <0>        -0.0604
     12 C10         9.2722   -2.2687   -0.1153 C.ar      1 <0>        -0.0566
     13 C11         9.2751   -0.9026   -0.1006 C.ar      1 <0>        -0.1000
     14 C12         8.0651   -0.2038   -0.0819 C.ar      1 <0>         0.1923
     15 N2          8.0311    1.1508   -0.0678 N.2       1 <0>        -0.5514
     16 C13         6.9051    1.8155   -0.0498 C.2       1 <0>         0.6594
     17 N3          5.6826    1.2027   -0.0438 N.pl3     1 <0>        -0.3685
     18 N4          4.3637    1.6764   -0.0320 N.2       1 <0>        -0.2877
     19 N5          6.9524    3.1898   -0.0360 N.pl3     1 <0>        -0.8086
     20 Cl1         8.1113   -4.7163   -0.1296 Cl        1 <0>        -0.0542
     21 H1         -0.8931    1.9736    0.0252 H         1 <0>         0.1603
     22 H2          1.6736    2.7966    0.0008 H         1 <0>         0.1603
     23 H3         -0.8667   -0.6456    0.0074 H         1 <0>         0.2151
     24 H4          5.9438   -2.8764   -0.0879 H         1 <0>         0.1517
     25 H5         10.2107   -2.8029   -0.1301 H         1 <0>         0.1482
     26 H6         10.2110   -0.3636   -0.1038 H         1 <0>         0.1535
     27 H7          7.8086    3.6457   -0.0396 H         1 <0>         0.4305
     28 H8          6.1295    3.7032   -0.0225 H         1 <0>         0.4230
@<TRIPOS>BOND
     1    1    5 2
     2    1    2 1
     3    1   21 1
     4    2    3 2
     5    2   22 1
     6    3    4 1
     7    3    6 1
     8    4    5 1
     9    5   23 1
    10    6   18 2
    11    6    7 1
    12    7    8 2
    13    8   17 1
    14    8    9 1
    15    9   14 ar
    16    9   10 ar
    17   10   11 ar
    18   10   24 1
    19   11   12 ar
    20   11   20 1
    21   12   13 ar
    22   12   25 1
    23   13   14 ar
    24   13   26 1
    25   14   15 1
    26   15   16 2
    27   16   17 1
    28   16   19 1
    29   17   18 1
    30   19   27 1
    31   19   28 1
@<TRIPOS>MOLECULE
CHEMBL1094548
   53    57     0     0     0
SMALL
USER_CHARGES

@<TRIPOS>ATOM
      1 C1          0.6571    1.3965    0.1989 C.3       1 <0>        -0.0548
      2 N1          0.4135   -0.0498    0.1161 N.4       1 <0>        -0.3658
      3 C2         -1.0288   -0.2706    0.0378 C.3       1 <0>        -0.0075
      4 C3         -1.2980   -1.5411   -0.7379 C.3       1 <0>        -0.1585
      5 C4         -1.4257   -2.7220    0.2415 C.3       1 <0>         0.1030
      6 N2         -0.4328   -2.6191    1.3299 N.pl3     1 <0>        -0.6296
      7 C5          0.9366   -2.2101    1.0940 C.3       1 <0>         0.1046
      8 C6          1.0527   -0.6728    1.2110 C.3       1 <0>        -0.0548
      9 C7         -0.8265   -2.9252    2.6272 C.ar      1 <0>         0.2159
     10 C8          0.0488   -2.7119    3.6849 C.ar      1 <0>        -0.1892
     11 C9         -0.3367   -3.0137    4.9771 C.ar      1 <0>         0.0007
     12 C10        -1.6039   -3.5331    5.2225 C.ar      1 <0>        -0.1879
     13 C11        -2.4942   -3.7510    4.1549 C.ar      1 <0>         0.0229
     14 C12        -2.1023   -3.4405    2.8637 C.ar      1 <0>        -0.1402
     15 C13        -3.7589   -4.3055    4.7013 C.ar      1 <0>         0.2927
     16 C14        -3.6281   -4.4210    6.0995 C.ar      1 <0>        -0.3427
     17 C15        -4.7097   -4.9268    6.8357 C.ar      1 <0>         0.3461
     18 N3         -5.8175   -5.2775    6.1816 N.ar      1 <0>        -0.5649
     19 C16        -5.8987   -5.1527    4.8666 C.ar      1 <0>         0.6031
     20 N4         -4.8963   -4.6780    4.1340 N.ar      1 <0>        -0.5617
     21 N5         -7.0653   -5.5287    4.2336 N.pl3     1 <0>        -0.8024
     22 C17        -4.6229   -5.0686    8.3075 C.ar      1 <0>        -0.0868
     23 C18        -3.4119   -5.4132    8.9076 C.ar      1 <0>        -0.0593
     24 C19        -3.3373   -5.5433   10.2792 C.ar      1 <0>        -0.1270
     25 C20        -4.4605   -5.3328   11.0590 C.ar      1 <0>        -0.0892
     26 C21        -5.6647   -4.9912   10.4696 C.ar      1 <0>        -0.1326
     27 C22        -5.7505   -4.8525    9.0995 C.ar      1 <0>        -0.0648
     28 C23        -2.2846   -3.9451    6.4720 C.2       1 <0>         0.4628
     29 O1         -1.8212   -3.8991    7.5947 O.2       1 <0>        -0.4113
     30 H1          1.7297    1.5870    0.1622 H         1 <0>         0.1255
     31 H2          0.1707    1.8954   -0.6393 H         1 <0>         0.1255
     32 H3          0.2517    1.7802    1.1351 H         1 <0>         0.1226
     33 H4         -1.4376   -0.3649    1.0438 H         1 <0>         0.1319
     34 H5         -1.4989    0.5719   -0.4692 H         1 <0>         0.1359
     35 H6         -2.2253   -1.4337   -1.3006 H         1 <0>         0.1251
     36 H7         -0.4742   -1.7277   -1.4268 H         1 <0>         0.0897
     37 H8         -2.4277   -2.7243    0.6704 H         1 <0>         0.1018
     38 H9         -1.2673   -3.6546   -0.3001 H         1 <0>         0.0851
     39 H10         1.5871   -2.6794    1.8319 H         1 <0>         0.1235
     40 H11         1.2405   -2.5213    0.0945 H         1 <0>         0.0999
     41 H12         2.1053   -0.3900    1.2232 H         1 <0>         0.1440
     42 H13         0.5824   -0.3448    2.1380 H         1 <0>         0.1323
     43 H14         1.0332   -2.3095    3.4966 H         1 <0>         0.1363
     44 H15         0.3462   -2.8467    5.7969 H         1 <0>         0.1446
     45 H16        -2.7816   -3.6008    2.0395 H         1 <0>         0.1419
     46 H17        -7.8075   -5.8773    4.7517 H         1 <0>         0.4233
     47 H18        -7.1433   -5.4444    3.2704 H         1 <0>         0.4195
     48 H19        -2.5345   -5.5781    8.2999 H         1 <0>         0.1338
     49 H20        -2.4002   -5.8105   10.7450 H         1 <0>         0.1300
     50 H21        -4.3972   -5.4358   12.1322 H         1 <0>         0.1285
     51 H22        -6.5381   -4.8285   11.0835 H         1 <0>         0.1300
     52 H23        -6.6900   -4.5814    8.6408 H         1 <0>         0.1295
     53 H24         0.8326   -0.3936   -0.7349 H         1 <0>         0.4188
@<TRIPOS>BOND
     1    1    2 1
     2    1   30 1
     3    1   31 1
     4    1   32 1
     5    2    8 1
     6    2    3 1
     7    2   53 1
     8    3    4 1
     9    3   33 1
    10    3   34 1
    11    4    5 1
    12    4   35 1
    13    4   36 1
    14    5    6 1
    15    5   37 1
    16    5   38 1
    17    6    7 1
    18    6    9 1
    19    7    8 1
    20    7   39 1
    21    7   40 1
    22    8   41 1
    23    8   42 1
    24    9   14 ar
    25    9   10 ar
    26   10   11 ar
    27   10   43 1
    28   11   12 ar
    29   11   44 1
    30   12   28 1
    31   12   13 ar
    32   13   14 ar
    33   13   15 1
    34   14   45 1
    35   15   20 ar
    36   15   16 ar
    37   16   17 ar
    38   16   28 1
    39   17   18 ar
    40   17   22 1
    41   18   19 ar
    42   19   20 ar
    43   19   21 1
    44   21   46 1
    45   21   47 1
    46   22   27 ar
    47   22   23 ar
    48   23   24 ar
    49   23   48 1
    50   24   25 ar
    51   24   49 1
    52   25   26 ar
    53   25   50 1
    54   26   27 ar
    55   26   51 1
    56   27   52 1
    57   28   29 2
@<TRIPOS>MOLECULE
CHEMBL16509
   35    39     0     0     0
SMALL
USER_CHARGES

@<TRIPOS>ATOM
      1 C1         -0.0167    1.3786    0.0096 C.ar      1 <0>        -0.1161
      2 C2          1.1696    2.0892    0.0021 C.ar      1 <0>        -0.1031
      3 C3          2.3774    1.4195   -0.0135 C.ar      1 <0>        -0.1057
      4 C4          2.3996    0.0309   -0.0212 C.ar      1 <0>         0.1470
      5 C5          1.2065   -0.6797   -0.0132 C.ar      1 <0>        -0.1111
      6 C6          0.0021   -0.0041    0.0020 C.ar      1 <0>        -0.1009
      7 N1          3.6226   -0.6512   -0.0375 N.pl3     1 <0>        -0.3085
      8 C7          3.8855   -1.8387    0.5835 C.2       1 <0>         0.3750
      9 C8          5.2253   -2.1475    0.3025 C.2       1 <0>        -0.2626
     10 C9          5.7353   -1.1091   -0.4978 C.2       1 <0>         0.1388
     11 N2          4.7856   -0.2364   -0.6984 N.2       1 <0>        -0.2592
     12 C10         5.7751   -3.3861    0.8543 C.2       1 <0>         0.4069
     13 N3          6.9506   -3.9773    0.8009 N.2       1 <0>        -0.5133
     14 C11         6.9121   -5.1189    1.4997 C.2       1 <0>         0.3519
     15 N4          5.7059   -5.2747    2.0123 N.2       1 <0>        -0.2978
     16 N5          4.9443   -4.1691    1.6131 N.pl3     1 <0>        -0.3759
     17 C12         3.6535   -3.7829    1.8302 C.2       1 <0>         0.6938
     18 N6          3.1585   -2.6737    1.3378 N.2       1 <0>        -0.5590
     19 N7          2.8417   -4.5877    2.5948 N.pl3     1 <0>        -0.7996
     20 C13         8.0417   -6.0566    1.6697 C.2       1 <0>         0.0411
     21 C14         8.0137   -7.2205    2.3716 C.2       1 <0>        -0.1360
     22 C15         9.2990   -7.7883    2.2675 C.2       1 <0>        -0.2200
     23 C16        10.0404   -6.9517    1.5150 C.2       1 <0>        -0.0031
     24 O1          9.2762   -5.9093    1.1512 O.3       1 <0>        -0.1520
     25 H1         -0.9598    1.9047    0.0260 H         1 <0>         0.1306
     26 H2          1.1517    3.1690    0.0081 H         1 <0>         0.1343
     27 H3          3.3035    1.9750   -0.0201 H         1 <0>         0.1354
     28 H4          1.2205   -1.7596   -0.0191 H         1 <0>         0.1344
     29 H5         -0.9261   -0.5562    0.0079 H         1 <0>         0.1337
     30 H6          6.7415   -1.0470   -0.8852 H         1 <0>         0.2083
     31 H7          3.1896   -5.4124    2.9685 H         1 <0>         0.4272
     32 H8          1.9212   -4.3305    2.7606 H         1 <0>         0.4313
     33 H9          7.1695   -7.6305    2.9060 H         1 <0>         0.1601
     34 H10         9.6279   -8.7179    2.7080 H         1 <0>         0.1597
     35 H11        11.0761   -7.0975    1.2457 H         1 <0>         0.2145
@<TRIPOS>BOND
     1    1    6 ar
     2    1    2 ar
     3    1   25 1
     4    2    3 ar
     5    2   26 1
     6    3    4 ar
     7    3   27 1
     8    4    5 ar
     9    4    7 1
    10    5    6 ar
    11    5   28 1
    12    6   29 1
    13    7   11 1
    14    7    8 1
    15    8   18 1
    16    8    9 2
    17    9   10 1
    18    9   12 1
    19   10   11 2
    20   10   30 1
    21   12   16 1
    22   12   13 2
    23   13   14 1
    24   14   15 2
    25   14   20 1
    26   15   16 1
    27   16   17 1
    28   17   18 2
    29   17   19 1
    30   19   31 1
    31   19   32 1
    32   20   24 1
    33   20   21 2
    34   21   22 1
    35   21   33 1
    36   22   23 2
    37   22   34 1
    38   23   24 1
    39   23   35 1
@<TRIPOS>MOLECULE
CHEMBL482138
   61    67     0     0     0
SMALL
USER_CHARGES

@<TRIPOS>ATOM
      1 C1         -0.0664    1.4765   -2.2034 C.2       1 <0>        -0.2199
      2 C2          1.2750    1.9076   -2.1892 C.2       1 <0>        -0.1366
      3 C3          2.0303    0.8264   -1.8596 C.2       1 <0>         0.0414
      4 O1          1.2047   -0.2223   -1.6781 O.3       1 <0>        -0.1521
      5 C4         -0.0636    0.1671   -1.8851 C.2       1 <0>        -0.0036
      6 C5          3.5019    0.8053   -1.7241 C.2       1 <0>         0.3515
      7 N1          4.2356   -0.2681   -1.4038 N.2       1 <0>        -0.5156
      8 C6          5.5100    0.0617   -1.3692 C.2       1 <0>         0.4061
      9 C7          6.7485   -0.6644   -1.0862 C.2       1 <0>        -0.2667
     10 C8          7.0600   -1.9924   -0.7433 C.2       1 <0>         0.1325
     11 N2          8.3538   -2.0903   -0.6050 N.2       1 <0>        -0.2633
     12 N3          8.9450   -0.8444   -0.8482 N.pl3     1 <0>        -0.3562
     13 C9          7.9573    0.0455   -1.1473 C.2       1 <0>         0.3709
     14 N4          7.9434    1.3493   -1.4577 N.2       1 <0>        -0.5623
     15 C10         6.8325    1.9969   -1.7099 C.2       1 <0>         0.6929
     16 N5          5.6088    1.3937   -1.6770 N.pl3     1 <0>        -0.3765
     17 N6          4.3008    1.8400   -1.9051 N.2       1 <0>        -0.2993
     18 N7          6.9025    3.3348   -2.0210 N.pl3     1 <0>        -0.8017
     19 C11        10.3786   -0.5483   -0.7901 C.3       1 <0>         0.1441
     20 C12        11.0029   -0.7771   -2.1681 C.3       1 <0>        -0.0993
     21 C13        12.4776   -0.4726   -2.1082 C.ar      1 <0>        -0.0692
     22 C14        12.9233    0.8225   -2.3698 C.ar      1 <0>        -0.0909
     23 C15        14.2467    1.1322   -2.3250 C.ar      1 <0>        -0.0843
     24 C16        15.1876    0.1329   -2.0094 C.ar      1 <0>         0.1196
     25 C17        14.7307   -1.1844   -1.7432 C.ar      1 <0>        -0.0818
     26 C18        13.3555   -1.4644   -1.7942 C.ar      1 <0>        -0.0901
     27 C19        15.6689   -2.1846   -1.4276 C.ar      1 <0>        -0.0531
     28 C20        16.9902   -1.8425   -1.3905 C.ar      1 <0>        -0.1246
     29 C21        17.3767   -0.5224   -1.6636 C.ar      1 <0>         0.1194
     30 N8         16.4901    0.4088   -1.9582 N.ar      1 <0>        -0.4373
     31 C22        18.8150   -0.1649   -1.6193 C.2       1 <0>         0.5712
     32 O2         19.6543   -1.0360   -1.5054 O.2       1 <0>        -0.5264
     33 N9         19.1914    1.1264   -1.7054 N.am      1 <0>        -0.5950
     34 C23        18.1955    2.2093   -1.6761 C.3       1 <0>         0.0435
     35 C24        18.6314    3.2388   -0.6274 C.3       1 <0>         0.0437
     36 O3         19.9837    3.6266   -0.8822 O.3       1 <0>        -0.3807
     37 C25        20.9288    2.5594   -0.7746 C.3       1 <0>         0.0489
     38 C26        20.6109    1.4952   -1.8252 C.3       1 <0>         0.0732
     39 H1         -0.9332    2.0820   -2.4232 H         1 <0>         0.1596
     40 H2          1.6338    2.9042   -2.4001 H         1 <0>         0.1600
     41 H3         -0.9365   -0.4641   -1.8084 H         1 <0>         0.2143
     42 H4          6.3487   -2.7951   -0.6159 H         1 <0>         0.2027
     43 H5          7.7630    3.7814   -2.0505 H         1 <0>         0.4304
     44 H6          6.0914    3.8317   -2.2108 H         1 <0>         0.4267
     45 H7         10.5233    0.4905   -0.4936 H         1 <0>         0.1028
     46 H8         10.8558   -1.2039   -0.0616 H         1 <0>         0.1042
     47 H9         10.8582   -1.8160   -2.4646 H         1 <0>         0.0882
     48 H10        10.5258   -0.1215   -2.8965 H         1 <0>         0.0851
     49 H11        12.2056    1.5923   -2.6123 H         1 <0>         0.1359
     50 H12        14.5749    2.1403   -2.5310 H         1 <0>         0.1415
     51 H13        12.9967   -2.4623   -1.5895 H         1 <0>         0.1373
     52 H14        15.3521   -3.1960   -1.2198 H         1 <0>         0.1502
     53 H15        17.7356   -2.5865   -1.1512 H         1 <0>         0.1527
     54 H16        18.1404    2.6839   -2.6558 H         1 <0>         0.0762
     55 H17        17.2198    1.8035   -1.4088 H         1 <0>         0.1515
     56 H18        17.9845    4.1142   -0.6857 H         1 <0>         0.1067
     57 H19        18.5603    2.7982    0.3670 H         1 <0>         0.0525
     58 H20        21.9346    2.9459   -0.9388 H         1 <0>         0.1091
     59 H21        20.8659    2.1162    0.2193 H         1 <0>         0.0561
     60 H22        21.2339    0.6169   -1.6566 H         1 <0>         0.1037
     61 H23        20.8031    1.8968   -2.8202 H         1 <0>         0.0803
@<TRIPOS>BOND
     1    1    5 2
     2    1    2 1
     3    1   39 1
     4    2    3 2
     5    2   40 1
     6    3    4 1
     7    3    6 1
     8    4    5 1
     9    5   41 1
    10    6   17 2
    11    6    7 1
    12    7    8 2
    13    8   16 1
    14    8    9 1
    15    9   13 2
    16    9   10 1
    17   10   11 2
    18   10   42 1
    19   11   12 1
    20   12   13 1
    21   12   19 1
    22   13   14 1
    23   14   15 2
    24   15   16 1
    25   15   18 1
    26   16   17 1
    27   18   43 1
    28   18   44 1
    29   19   20 1
    30   19   45 1
    31   19   46 1
    32   20   21 1
    33   20   47 1
    34   20   48 1
    35   21   26 ar
    36   21   22 ar
    37   22   23 ar
    38   22   49 1
    39   23   24 ar
    40   23   50 1
    41   24   30 ar
    42   24   25 ar
    43   25   26 ar
    44   25   27 ar
    45   26   51 1
    46   27   28 ar
    47   27   52 1
    48   28   29 ar
    49   28   53 1
    50   29   30 ar
    51   29   31 1
    52   31   32 2
    53   31   33 am
    54   33   38 1
    55   33   34 1
    56   34   35 1
    57   34   54 1
    58   34   55 1
    59   35   36 1
    60   35   56 1
    61   35   57 1
    62   36   37 1
    63   37   38 1
    64   37   58 1
    65   37   59 1
    66   38   60 1
    67   38   61 1
@<TRIPOS>MOLECULE
CHEMBL17302
   38    42     0     0     0
SMALL
USER_CHARGES

@<TRIPOS>ATOM
      1 C1         -0.0162    1.3433    0.0094 C.2       1 <0>        -0.2201
      2 C2          1.3252    1.7744   -0.0011 C.2       1 <0>        -0.1369
      3 C3          2.0962    0.6548   -0.0144 C.2       1 <0>         0.0419
      4 O1          1.2797   -0.4166   -0.0124 O.3       1 <0>        -0.1521
      5 C4          0.0021   -0.0041    0.0020 C.2       1 <0>        -0.0038
      6 C5          3.5736    0.6193   -0.0287 C.2       1 <0>         0.3511
      7 N1          4.3223   -0.4908   -0.0472 N.2       1 <0>        -0.5161
      8 C6          5.5979   -0.1638   -0.0558 C.2       1 <0>         0.4065
      9 C7          6.8494   -0.9218   -0.0750 C.2       1 <0>        -0.2666
     10 C8          7.1770   -2.2895   -0.0925 C.2       1 <0>         0.1317
     11 N2          8.4769   -2.4024   -0.1057 N.2       1 <0>        -0.2616
     12 N3          9.0564   -1.1275   -0.0976 N.pl3     1 <0>        -0.3524
     13 C9          8.0548   -0.2036   -0.0786 C.2       1 <0>         0.3726
     14 N4          8.0263    1.1363   -0.0638 N.2       1 <0>        -0.5621
     15 C10         6.9037    1.8122   -0.0459 C.2       1 <0>         0.6925
     16 N5          5.6820    1.2042   -0.0426 N.pl3     1 <0>        -0.3763
     17 N6          4.3634    1.6766   -0.0311 N.2       1 <0>        -0.2998
     18 N7          6.9590    3.1863   -0.0316 N.pl3     1 <0>        -0.8022
     19 C11        10.4923   -0.8370   -0.1068 C.3       1 <0>         0.1816
     20 C12        10.9724   -0.7222   -1.5307 C.ar      1 <0>        -0.1349
     21 C13        11.4245   -1.8444   -2.1996 C.ar      1 <0>        -0.0585
     22 C14        11.8646   -1.7405   -3.5055 C.ar      1 <0>        -0.1580
     23 C15        11.8527   -0.5119   -4.1439 C.ar      1 <0>         0.1122
     24 C16        11.3997    0.6113   -3.4728 C.ar      1 <0>        -0.1592
     25 C17        10.9551    0.5040   -2.1687 C.ar      1 <0>        -0.0627
     26 F1         12.2831   -0.4090   -5.4203 F         1 <0>        -0.1364
     27 H1         -0.8931    1.9736    0.0252 H         1 <0>         0.1595
     28 H2          1.6736    2.7966    0.0006 H         1 <0>         0.1599
     29 H3         -0.8667   -0.6456    0.0076 H         1 <0>         0.2143
     30 H4          6.4721   -3.1077   -0.0946 H         1 <0>         0.2022
     31 H5          7.8178    3.6373   -0.0348 H         1 <0>         0.4302
     32 H6          6.1392    3.7046   -0.0183 H         1 <0>         0.4265
     33 H7         10.6764    0.1019    0.4155 H         1 <0>         0.1106
     34 H8         11.0292   -1.6426    0.3939 H         1 <0>         0.1130
     35 H9         11.4340   -2.8026   -1.7014 H         1 <0>         0.1385
     36 H10        12.2181   -2.6172   -4.0278 H         1 <0>         0.1395
     37 H11        11.3902    1.5702   -3.9696 H         1 <0>         0.1380
     38 H12        10.5975    1.3792   -1.6466 H         1 <0>         0.1376
@<TRIPOS>BOND
     1    1    5 2
     2    1    2 1
     3    1   27 1
     4    2    3 2
     5    2   28 1
     6    3    4 1
     7    3    6 1
     8    4    5 1
     9    5   29 1
    10    6   17 2
    11    6    7 1
    12    7    8 2
    13    8   16 1
    14    8    9 1
    15    9   13 2
    16    9   10 1
    17   10   11 2
    18   10   30 1
    19   11   12 1
    20   12   13 1
    21   12   19 1
    22   13   14 1
    23   14   15 2
    24   15   16 1
    25   15   18 1
    26   16   17 1
    27   18   31 1
    28   18   32 1
    29   19   20 1
    30   19   33 1
    31   19   34 1
    32   20   25 ar
    33   20   21 ar
    34   21   22 ar
    35   21   35 1
    36   22   23 ar
    37   22   36 1
    38   23   24 ar
    39   23   26 1
    40   24   25 ar
    41   24   37 1
    42   25   38 1
@<TRIPOS>MOLECULE
CHEMBL221573
   75    81     0     0     0
SMALL
USER_CHARGES

@<TRIPOS>ATOM
      1 C1          2.8040   -3.1563    5.1243 C.2       1 <0>        -0.2195
      2 C2          3.8917   -2.3433    4.7489 C.2       1 <0>        -0.1239
      3 C3          4.9990   -2.8780    5.3292 C.2       1 <0>         0.0315
      4 O1          4.6219   -3.9657    6.0286 O.3       1 <0>        -0.1587
      5 C4          3.2957   -4.1369    5.9070 C.2       1 <0>        -0.0011
      6 C5          6.3767   -2.3568    5.2124 C.2       1 <0>         0.3323
      7 N1          6.7396   -1.2652    4.5143 N.2       1 <0>        -0.4755
      8 C6          8.0310   -1.0857    4.6187 C.2       1 <0>         0.4994
      9 N2          8.8496   -0.1399    4.1107 N.2       1 <0>        -0.5232
     10 C7         10.1550   -0.2990    4.2544 C.2       1 <0>         0.6633
     11 N3         10.6789   -1.4236    4.8454 N.pl3     1 <0>        -0.7081
     12 C8          9.8750   -2.1564    5.7185 C.2       1 <0>         0.6317
     13 N4          8.5238   -2.0958    5.4196 N.pl3     1 <0>        -0.3831
     14 N5          7.4462   -2.8865    5.7823 N.2       1 <0>        -0.2431
     15 N6         10.3514   -2.8359    6.7227 N.2       1 <0>        -0.6526
     16 N7         11.0027    0.6780    3.8039 N.pl3     1 <0>        -0.5989
     17 C9         12.4622    0.5409    3.9371 C.3       1 <0>         0.0903
     18 C10        12.9968    1.8101    4.6042 C.3       1 <0>        -0.0214
     19 N8         12.5845    2.9947    3.8344 N.4       1 <0>        -0.3817
     20 C11        13.2028    4.1732    4.4604 C.3       1 <0>        -0.0029
     21 C12        12.8582    5.4343    3.6692 C.3       1 <0>        -0.1076
     22 H1         13.3274    6.2994    4.1378 H         1 <0>         0.1225
     23 C13        11.3363    5.6138    3.6665 C.3       1 <0>        -0.1190
     24 C14        10.6989    4.3658    3.0539 C.3       1 <0>        -0.1409
     25 C15        11.1236    3.1228    3.8435 C.3       1 <0>         0.0165
     26 H2         10.7708    3.2053    4.8715 H         1 <0>         0.1463
     27 C16        10.4874    1.8963    3.1657 C.3       1 <0>         0.1093
     28 C17        13.3636    5.2924    2.2321 C.3       1 <0>         0.0355
     29 N9         13.1481    6.5536    1.5104 N.3       1 <0>        -0.5169
     30 C18        14.1225    7.5713    1.9263 C.3       1 <0>         0.0913
     31 C19        13.6600    8.9286    1.4629 C.ar      1 <0>        -0.0437
     32 C20        14.1271    9.4702    0.2751 C.ar      1 <0>        -0.1712
     33 C21        13.6807   10.7177   -0.1178 C.ar      1 <0>         0.1056
     34 N10        12.8216   11.3907    0.6225 N.ar      1 <0>        -0.4781
     35 C22        12.3563   10.9068    1.7576 C.ar      1 <0>         0.1032
     36 C23        12.7529    9.6631    2.2113 C.ar      1 <0>        -0.1510
     37 C24        13.1944    6.3432    0.0573 C.3       1 <0>         0.0835
     38 C25        11.9130    5.6934   -0.3973 C.ar      1 <0>        -0.0326
     39 C26        11.8305    4.3179   -0.5514 C.ar      1 <0>        -0.1865
     40 C27        10.6386    3.7575   -0.9702 C.ar      1 <0>         0.0994
     41 N11         9.5889    4.5148   -1.2223 N.ar      1 <0>        -0.4756
     42 C28         9.6310    5.8258   -1.0867 C.ar      1 <0>         0.1094
     43 C29        10.7867    6.4562   -0.6659 C.ar      1 <0>        -0.1454
     44 H3          1.7708   -3.0173    4.8421 H         1 <0>         0.1611
     45 H4          3.8534   -1.4651    4.1215 H         1 <0>         0.1631
     46 H5          2.7188   -4.9291    6.3611 H         1 <0>         0.2153
     47 H6         11.3066   -2.8476    6.8908 H         1 <0>         0.3679
     48 H7         12.6960   -0.3265    4.5544 H         1 <0>         0.1238
     49 H8         12.9129    0.4248    2.9514 H         1 <0>         0.1121
     50 H9         12.6005    1.8808    5.6171 H         1 <0>         0.1389
     51 H10        14.0852    1.7662    4.6454 H         1 <0>         0.1517
     52 H11        12.8338    4.2753    5.4810 H         1 <0>         0.1353
     53 H12        14.2850    4.0448    4.4815 H         1 <0>         0.1333
     54 H13        10.9811    5.7418    4.6890 H         1 <0>         0.0807
     55 H14        11.0721    6.4887    3.0724 H         1 <0>         0.1098
     56 H15         9.6135    4.4612    3.0849 H         1 <0>         0.1170
     57 H16        11.0229    4.2650    2.0181 H         1 <0>         0.0922
     58 H17        10.7433    1.8886    2.1062 H         1 <0>         0.1025
     59 H18         9.4041    1.9368    3.2794 H         1 <0>         0.1531
     60 H19        14.4278    5.0572    2.2428 H         1 <0>         0.0537
     61 H20        12.8193    4.4906    1.7330 H         1 <0>         0.0754
     62 H21        14.2094    7.5685    3.0128 H         1 <0>         0.0923
     63 H22        15.0930    7.3474    1.4836 H         1 <0>         0.0567
     64 H23        14.8313    8.9242   -0.3352 H         1 <0>         0.1318
     65 H24        14.0398   11.1466   -1.0417 H         1 <0>         0.1579
     66 H25        11.6540   11.4874    2.3373 H         1 <0>         0.1576
     67 H26        12.3644    9.2700    3.1392 H         1 <0>         0.1330
     68 H27        13.3132    7.3032   -0.4452 H         1 <0>         0.0991
     69 H28        14.0369    5.6972   -0.1896 H         1 <0>         0.0559
     70 H29        12.6869    3.6925   -0.3472 H         1 <0>         0.1252
     71 H30        10.5662    2.6869   -1.0927 H         1 <0>         0.1538
     72 H31         8.7510    6.4133   -1.3029 H         1 <0>         0.1594
     73 H32        10.8136    7.5298   -0.5519 H         1 <0>         0.1349
     74 H33        11.5891   -1.7023    4.6589 H         1 <0>         0.4278
     75 H34        12.9091    2.9078    2.8830 H         1 <0>         0.4190
@<TRIPOS>BOND
     1    1    5 2
     2    1    2 1
     3    1   44 1
     4    2    3 2
     5    2   45 1
     6    3    4 1
     7    3    6 1
     8    4    5 1
     9    5   46 1
    10    6   14 2
    11    6    7 1
    12    7    8 2
    13    8   13 1
    14    8    9 1
    15    9   10 2
    16   10   11 1
    17   10   16 1
    18   11   12 1
    19   11   74 1
    20   12   13 1
    21   12   15 2
    22   13   14 1
    23   15   47 1
    24   16   27 1
    25   16   17 1
    26   17   18 1
    27   17   48 1
    28   17   49 1
    29   18   19 1
    30   18   50 1
    31   18   51 1
    32   19   25 1
    33   19   20 1
    34   19   75 1
    35   20   21 1
    36   20   52 1
    37   20   53 1
    38   21   22 1
    39   21   23 1
    40   21   28 1
    41   23   24 1
    42   23   54 1
    43   23   55 1
    44   24   25 1
    45   24   56 1
    46   24   57 1
    47   25   26 1
    48   25   27 1
    49   27   58 1
    50   27   59 1
    51   28   29 1
    52   28   60 1
    53   28   61 1
    54   29   30 1
    55   29   37 1
    56   30   31 1
    57   30   62 1
    58   30   63 1
    59   31   36 ar
    60   31   32 ar
    61   32   33 ar
    62   32   64 1
    63   33   34 ar
    64   33   65 1
    65   34   35 ar
    66   35   36 ar
    67   35   66 1
    68   36   67 1
    69   37   38 1
    70   37   68 1
    71   37   69 1
    72   38   43 ar
    73   38   39 ar
    74   39   40 ar
    75   39   70 1
    76   40   41 ar
    77   40   71 1
    78   41   42 ar
    79   42   43 ar
    80   42   72 1
    81   43   73 1
@<TRIPOS>MOLECULE
CHEMBL327708
   62    65     0     0     0
SMALL
USER_CHARGES

@<TRIPOS>ATOM
      1 C1         -0.0187    1.5258    0.0104 C.3       1 <0>        -0.1476
      2 C2          0.0021   -0.0041    0.0020 C.3       1 <0>        -0.1375
      3 C3         -1.4333   -0.5336    0.0129 C.3       1 <0>         0.1134
      4 N1         -1.4134   -1.9985    0.0048 N.am      1 <0>        -0.5480
      5 C4         -1.4101   -2.6566   -1.1731 C.2       1 <0>         0.5937
      6 O1         -1.4231   -2.0399   -2.2234 O.2       1 <0>        -0.5097
      7 C5         -1.3909   -4.0680   -1.1740 C.2       1 <0>        -0.1519
      8 C6         -1.3760   -4.7455    0.0387 C.2       1 <0>         0.3225
      9 N2         -1.3595   -6.0519   -0.2379 N.2       1 <0>        -0.4910
     10 H1         -1.3884   -4.8858   -3.1159 H         1 <0>         0.4353
     11 C7         -1.3633   -6.2307   -1.5343 C.2       1 <0>         0.3091
     12 N3         -1.3824   -5.0365   -2.1577 N.pl3     1 <0>        -0.5122
     13 C8         -1.3476   -7.5699   -2.2252 C.3       1 <0>        -0.0171
     14 C9         -0.5833   -7.4663   -3.5612 C.3       1 <0>        -0.1245
     15 C10        -1.3699   -8.3925   -4.5217 C.3       1 <0>        -0.1244
     16 C11        -2.8415   -8.1438   -4.1074 C.3       1 <0>        -0.1289
     17 C12        -2.7834   -8.0007   -2.5725 C.3       1 <0>        -0.1170
     18 N4         -1.3803   -4.0123    1.2144 N.am      1 <0>        -0.5067
     19 C13        -1.3933   -2.6667    1.1710 C.2       1 <0>         0.7086
     20 O2         -1.3920   -2.0401    2.2131 O.2       1 <0>        -0.5273
     21 C14        -1.3653   -4.7023    2.5066 C.3       1 <0>         0.1247
     22 C15         0.0823   -4.9234    2.9499 C.3       1 <0>        -0.1355
     23 C16         0.0980   -5.6439    4.2995 C.3       1 <0>         0.0726
     24 O3          1.4500   -5.8504    4.7136 O.3       1 <0>        -0.3427
     25 C17         1.6402   -6.4770    5.8908 C.2       1 <0>         0.5060
     26 O4          0.6846   -6.8383    6.5479 O.2       1 <0>        -0.4865
     27 C18         3.0110   -6.7249    6.3826 C.ar      1 <0>        -0.0641
     28 C19         4.1116   -6.3058    5.6326 C.ar      1 <0>        -0.0751
     29 C20         5.3889   -6.5405    6.0978 C.ar      1 <0>        -0.0476
     30 C21         5.5807   -7.1895    7.3046 C.ar      1 <0>        -0.6543
     31 C22         4.4945   -7.6078    8.0527 C.ar      1 <0>        -0.0190
     32 C23         3.2117   -7.3741    7.6024 C.ar      1 <0>        -0.0678
     33 S1          7.2157   -7.4851    7.8913 S.o2      1 <0>         2.6706
     34 O5          7.5771   -6.3551    8.6733 O.2       1 <0>        -0.9145
     35 O6          7.2274   -8.8072    8.4120 O.2       1 <0>        -0.9171
     36 F1          8.1886   -7.4872    6.6085 F         1 <0>        -0.4657
     37 H2          1.0039    1.9031    0.0027 H         1 <0>         0.0618
     38 H3         -0.5459    1.8868   -0.8726 H         1 <0>         0.0591
     39 H4         -0.5289    1.8773    0.9072 H         1 <0>         0.0600
     40 H5          0.5123   -0.3556   -0.8948 H         1 <0>         0.0673
     41 H6          0.5293   -0.3651    0.8851 H         1 <0>         0.0691
     42 H7         -1.9435   -0.1821    0.9097 H         1 <0>         0.1040
     43 H8         -1.9605   -0.1726   -0.8702 H         1 <0>         0.1019
     44 H9         -0.8790   -8.3156   -1.5830 H         1 <0>         0.1179
     45 H10        -0.5932   -6.4398   -3.9278 H         1 <0>         0.0623
     46 H11         0.4408   -7.8204   -3.4433 H         1 <0>         0.0824
     47 H12        -1.2063   -8.1014   -5.5593 H         1 <0>         0.0740
     48 H13        -1.0951   -9.4354   -4.3640 H         1 <0>         0.0763
     49 H14        -3.2161   -7.2268   -4.5621 H         1 <0>         0.0667
     50 H15        -3.4654   -8.9924   -4.3880 H         1 <0>         0.0745
     51 H16        -3.0113   -8.9559   -2.0995 H         1 <0>         0.0825
     52 H17        -3.4915   -7.2412   -2.2412 H         1 <0>         0.0685
     53 H18        -1.8838   -4.0952    3.2487 H         1 <0>         0.1062
     54 H19        -1.8668   -5.6652    2.4102 H         1 <0>         0.1047
     55 H20         0.6009   -5.5304    2.2079 H         1 <0>         0.0834
     56 H21         0.5838   -3.9604    3.0463 H         1 <0>         0.0836
     57 H22        -0.4206   -5.0369    5.0416 H         1 <0>         0.0779
     58 H23        -0.4035   -6.6069    4.2031 H         1 <0>         0.0780
     59 H24         3.9633   -5.7995    4.6903 H         1 <0>         0.1544
     60 H25         6.2411   -6.2172    5.5185 H         1 <0>         0.1498
     61 H26         4.6512   -8.1145    8.9936 H         1 <0>         0.1549
     62 H27         2.3647   -7.6968    8.1896 H         1 <0>         0.1560
@<TRIPOS>BOND
     1    1    2 1
     2    1   37 1
     3    1   38 1
     4    1   39 1
     5    2    3 1
     6    2   40 1
     7    2   41 1
     8    3   42 1
     9    3   43 1
    10    3    4 1
    11    4   19 am
    12    4    5 am
    13    5    6 2
    14    5    7 1
    15    7   12 1
    16    7    8 2
    17    8    9 1
    18    8   18 1
    19    9   11 2
    20   10   12 1
    21   11   12 1
    22   11   13 1
    23   13   17 1
    24   13   14 1
    25   13   44 1
    26   14   15 1
    27   14   45 1
    28   14   46 1
    29   15   16 1
    30   15   47 1
    31   15   48 1
    32   16   17 1
    33   16   49 1
    34   16   50 1
    35   17   51 1
    36   17   52 1
    37   18   21 1
    38   18   19 am
    39   19   20 2
    40   21   22 1
    41   21   53 1
    42   21   54 1
    43   22   23 1
    44   22   55 1
    45   22   56 1
    46   23   24 1
    47   23   57 1
    48   23   58 1
    49   24   25 1
    50   25   26 2
    51   25   27 1
    52   27   32 ar
    53   27   28 ar
    54   28   29 ar
    55   28   59 1
    56   29   30 ar
    57   29   60 1
    58   30   31 ar
    59   30   33 1
    60   31   32 ar
    61   31   61 1
    62   32   62 1
    63   33   34 2
    64   33   35 2
    65   33   36 1
@<TRIPOS>MOLECULE
CHEMBL576351
   65    70     0     0     0
SMALL
USER_CHARGES

@<TRIPOS>ATOM
      1 C1         -0.0187    1.5258    0.0104 C.3       1 <0>        -0.1548
      2 C2          0.0021   -0.0041    0.0020 C.3       1 <0>        -0.0937
      3 C3          0.7182   -0.4975   -1.2568 C.3       1 <0>        -0.1485
      4 C4          0.7421   -0.5109    1.2415 C.3       1 <0>        -0.1299
      5 C5         -0.0416   -0.1236    2.4973 C.3       1 <0>         0.1250
      6 N1          0.6670   -0.6089    3.6841 N.pl3     1 <0>        -0.3347
      7 C6          1.0416    0.1526    4.7268 C.2       1 <0>         0.1575
      8 C7          1.6736   -0.6591    5.6329 C.2       1 <0>        -0.2675
      9 C8          1.6657   -2.0167    5.0649 C.2       1 <0>         0.3012
     10 N2          1.0508   -1.9366    3.9064 N.2       1 <0>        -0.2479
     11 N3          2.2397   -3.0201    5.7795 N.2       1 <0>        -0.4471
     12 C9          2.7904   -2.8100    6.9423 C.2       1 <0>         0.6509
     13 N4          2.8449   -1.5839    7.5487 N.pl3     1 <0>        -0.3750
     14 C10         2.3070   -0.4788    6.9451 C.2       1 <0>         0.4109
     15 N5          2.4983    0.5517    7.7378 N.2       1 <0>        -0.5124
     16 C11         3.1456    0.1561    8.8424 C.2       1 <0>         0.3448
     17 N6          3.3754   -1.1403    8.7691 N.2       1 <0>        -0.2919
     18 C12         3.5377    1.0330    9.9654 C.2       1 <0>         0.0433
     19 C13         4.1990    0.6443   11.0879 C.2       1 <0>        -0.1370
     20 C14         4.3637    1.7969   11.8815 C.2       1 <0>        -0.2190
     21 C15         3.8008    2.8214   11.2113 C.2       1 <0>        -0.0052
     22 O1          3.3073    2.3573   10.0520 O.3       1 <0>        -0.1533
     23 N7          3.3512   -3.8873    7.6010 N.am      1 <0>        -0.6463
     24 C16         3.3187   -5.1119    7.0392 C.2       1 <0>         0.5065
     25 O2          2.7973   -5.2683    5.9557 O.2       1 <0>        -0.4316
     26 C17         3.9304   -6.2870    7.7577 C.3       1 <0>        -0.0932
     27 C18         3.7618   -7.5298    6.9222 C.ar      1 <0>        -0.0749
     28 C19         2.6320   -8.3134    7.0730 C.ar      1 <0>        -0.0970
     29 C20         2.4725   -9.4527    6.3105 C.ar      1 <0>        -0.1085
     30 C21         3.4521   -9.8130    5.3875 C.ar      1 <0>        -0.0397
     31 C22         4.5882   -9.0199    5.2397 C.ar      1 <0>        -0.1086
     32 C23         4.7348   -7.8797    6.0034 C.ar      1 <0>        -0.0971
     33 C24         3.2863  -11.0371    4.5652 C.ar      1 <0>        -0.0468
     34 C25         2.1477  -11.8272    4.7092 C.ar      1 <0>        -0.1104
     35 C26         1.9985  -12.9644    3.9415 C.ar      1 <0>        -0.1177
     36 C27         2.9768  -13.3205    3.0307 C.ar      1 <0>        -0.1187
     37 C28         4.1093  -12.5400    2.8840 C.ar      1 <0>        -0.1177
     38 C29         4.2660  -11.3973    3.6421 C.ar      1 <0>        -0.1104
     39 H1          1.0039    1.9031    0.0027 H         1 <0>         0.0574
     40 H2         -0.5459    1.8868   -0.8726 H         1 <0>         0.0596
     41 H3         -0.5289    1.8773    0.9072 H         1 <0>         0.0552
     42 H4         -1.0205   -0.3814    0.0098 H         1 <0>         0.0759
     43 H5          1.7408   -0.1202   -1.2645 H         1 <0>         0.0557
     44 H6          0.7330   -1.5874   -1.2628 H         1 <0>         0.0574
     45 H7          0.1910   -0.1364   -2.1398 H         1 <0>         0.0586
     46 H8          0.8346   -1.5958    1.1912 H         1 <0>         0.0839
     47 H9          1.7350   -0.0630    1.2804 H         1 <0>         0.0720
     48 H10        -0.1341    0.9613    2.5476 H         1 <0>         0.1093
     49 H11        -1.0345   -0.5716    2.4584 H         1 <0>         0.0982
     50 H12         0.8749    1.2145    4.8316 H         1 <0>         0.1999
     51 H13         4.5331   -0.3548   11.3255 H         1 <0>         0.1606
     52 H14         4.8493    1.8492   12.8448 H         1 <0>         0.1595
     53 H15         3.7571    3.8464   11.5489 H         1 <0>         0.2138
     54 H16         3.7683   -3.7622    8.4678 H         1 <0>         0.4303
     55 H17         4.9918   -6.1004    7.9213 H         1 <0>         0.1129
     56 H18         3.4334   -6.4245    8.7180 H         1 <0>         0.1130
     57 H19         1.8735   -8.0334    7.7890 H         1 <0>         0.1239
     58 H20         1.5901  -10.0641    6.4293 H         1 <0>         0.1265
     59 H21         5.3508   -9.2948    4.5260 H         1 <0>         0.1265
     60 H22         5.6127   -7.2617    5.8863 H         1 <0>         0.1239
     61 H23         1.3836  -11.5505    5.4205 H         1 <0>         0.1253
     62 H24         1.1164  -13.5776    4.0522 H         1 <0>         0.1245
     63 H25         2.8561  -14.2113    2.4322 H         1 <0>         0.1230
     64 H26         4.8702  -12.8227    2.1717 H         1 <0>         0.1245
     65 H27         5.1485  -10.7862    3.5236 H         1 <0>         0.1253
@<TRIPOS>BOND
     1    1    2 1
     2    1   39 1
     3    1   40 1
     4    1   41 1
     5    2    3 1
     6    2    4 1
     7    2   42 1
     8    3   43 1
     9    3   44 1
    10    3   45 1
    11    4    5 1
    12    4   46 1
    13    4   47 1
    14    5    6 1
    15    5   48 1
    16    5   49 1
    17    6   10 1
    18    6    7 1
    19    7    8 2
    20    7   50 1
    21    8   14 1
    22    8    9 1
    23    9   10 2
    24    9   11 1
    25   11   12 2
    26   12   13 1
    27   12   23 1
    28   13   17 1
    29   13   14 1
    30   14   15 2
    31   15   16 1
    32   16   17 2
    33   16   18 1
    34   18   22 1
    35   18   19 2
    36   19   20 1
    37   19   51 1
    38   20   21 2
    39   20   52 1
    40   21   22 1
    41   21   53 1
    42   23   24 am
    43   23   54 1
    44   24   25 2
    45   24   26 1
    46   26   27 1
    47   26   55 1
    48   26   56 1
    49   27   32 ar
    50   27   28 ar
    51   28   29 ar
    52   28   57 1
    53   29   30 ar
    54   29   58 1
    55   30   31 ar
    56   30   33 1
    57   31   32 ar
    58   31   59 1
    59   32   60 1
    60   33   38 ar
    61   33   34 ar
    62   34   35 ar
    63   34   61 1
    64   35   36 ar
    65   35   62 1
    66   36   37 ar
    67   36   63 1
    68   37   38 ar
    69   37   64 1
    70   38   65 1
@<TRIPOS>MOLECULE
CHEMBL183531
   52    56     0     0     0
SMALL
USER_CHARGES

@<TRIPOS>ATOM
      1 C1         -0.0162    1.3434    0.0094 C.2       1 <0>        -0.2201
      2 C2          1.3252    1.7744   -0.0011 C.2       1 <0>        -0.1205
      3 C3          2.0961    0.6548   -0.0144 C.2       1 <0>         0.0252
      4 O1          1.2797   -0.4166   -0.0124 O.3       1 <0>        -0.1603
      5 C4          0.0021   -0.0041    0.0020 C.2       1 <0>        -0.0001
      6 C5          3.5737    0.6193   -0.0287 C.2       1 <0>         0.3675
      7 N1          4.3730    1.6920   -0.0248 N.2       1 <0>        -0.5288
      8 C6          5.6386    1.3016   -0.0401 C.2       1 <0>         0.3754
      9 C7          6.8656    1.9861   -0.0443 C.2       1 <0>        -0.2977
     10 C8          8.0325    1.2463   -0.0628 C.2       1 <0>         0.4661
     11 N2          7.9812   -0.0912   -0.0761 N.2       1 <0>        -0.5963
     12 C9          6.8369   -0.7384   -0.0722 C.2       1 <0>         0.6908
     13 N3          5.6511   -0.0704   -0.0544 N.pl3     1 <0>        -0.3764
     14 N4          4.3106   -0.4761   -0.0417 N.2       1 <0>        -0.3221
     15 N5          6.8380   -2.1130   -0.0865 N.pl3     1 <0>        -0.7985
     16 N6          9.2607    1.8916   -0.0679 N.pl3     1 <0>        -0.7341
     17 C10        10.4992    1.1092   -0.0875 C.3       1 <0>         0.1114
     18 C11        11.7008    2.0563   -0.0893 C.3       1 <0>         0.0095
     19 H1         11.7396    2.6076    0.8502 H         1 <0>         0.1503
     20 C12        13.0035    1.2512   -0.2798 C.3       1 <0>        -0.1301
     21 C13        13.2749    1.3807   -1.8018 C.3       1 <0>        -0.1416
     22 C14        12.7853    2.8227   -2.0854 C.3       1 <0>        -0.0117
     23 N7         11.5958    2.9976   -1.2193 N.4       1 <0>        -0.3952
     24 C15        11.5479    4.3754   -0.7122 C.3       1 <0>         0.0432
     25 C16        11.3174    5.3252   -1.8593 C.ar      1 <0>        -0.0992
     26 C17        12.3862    5.8663   -2.5586 C.ar      1 <0>        -0.1492
     27 C18        12.1372    6.7336   -3.6046 C.ar      1 <0>         0.1371
     28 N8         10.9013    7.0490   -3.9405 N.ar      1 <0>        -0.4515
     29 C19         9.8603    6.5540   -3.2982 C.ar      1 <0>         0.1848
     30 C20        10.0328    5.6741   -2.2439 C.ar      1 <0>        -0.1371
     31 Cl1         8.2566    7.0057   -3.7858 Cl        1 <0>         0.0042
     32 H2         -0.8931    1.9736    0.0252 H         1 <0>         0.1615
     33 H3          1.6736    2.7966    0.0008 H         1 <0>         0.1629
     34 H4         -0.8667   -0.6456    0.0069 H         1 <0>         0.2157
     35 H5          6.8960    3.0656   -0.0338 H         1 <0>         0.1585
     36 H6          7.6784   -2.5973   -0.0992 H         1 <0>         0.4303
     37 H7          5.9984   -2.5988   -0.0837 H         1 <0>         0.4301
     38 H8          9.2994    2.8608   -0.0586 H         1 <0>         0.4068
     39 H9         10.5402    0.4719    0.7958 H         1 <0>         0.1162
     40 H10        10.5234    0.4897   -0.9840 H         1 <0>         0.0963
     41 H11        13.8171    1.6928    0.2957 H         1 <0>         0.1086
     42 H12        12.8557    0.2076   -0.0021 H         1 <0>         0.1199
     43 H13        14.3383    1.2796   -2.0188 H         1 <0>         0.1224
     44 H14        12.6920    0.6524   -2.3657 H         1 <0>         0.1008
     45 H15        13.5568    3.5448   -1.8184 H         1 <0>         0.1354
     46 H16        12.5102    2.9305   -3.1346 H         1 <0>         0.1341
     47 H17        10.7341    4.4699    0.0068 H         1 <0>         0.1410
     48 H18        12.4928    4.6164   -0.2251 H         1 <0>         0.1502
     49 H19        13.4007    5.6128   -2.2884 H         1 <0>         0.1533
     50 H20        12.9644    7.1588   -4.1536 H         1 <0>         0.1804
     51 H21         9.1771    5.2683   -1.7247 H         1 <0>         0.1556
     52 H22        10.7586    2.8021   -1.7474 H         1 <0>         0.4250
@<TRIPOS>BOND
     1    1    5 2
     2    1    2 1
     3    1   32 1
     4    2    3 2
     5    2   33 1
     6    3    4 1
     7    3    6 1
     8    4    5 1
     9    5   34 1
    10    6   14 2
    11    6    7 1
    12    7    8 2
    13    8   13 1
    14    8    9 1
    15    9   10 2
    16    9   35 1
    17   10   11 1
    18   10   16 1
    19   11   12 2
    20   12   13 1
    21   12   15 1
    22   13   14 1
    23   15   36 1
    24   15   37 1
    25   16   17 1
    26   16   38 1
    27   17   18 1
    28   17   39 1
    29   17   40 1
    30   18   19 1
    31   18   23 1
    32   18   20 1
    33   20   21 1
    34   20   41 1
    35   20   42 1
    36   21   22 1
    37   21   43 1
    38   21   44 1
    39   22   23 1
    40   22   45 1
    41   22   46 1
    42   23   24 1
    43   23   52 1
    44   24   25 1
    45   24   47 1
    46   24   48 1
    47   25   30 ar
    48   25   26 ar
    49   26   27 ar
    50   26   49 1
    51   27   28 ar
    52   27   50 1
    53   28   29 ar
    54   29   30 ar
    55   29   31 1
    56   30   51 1
@<TRIPOS>MOLECULE
CHEMBL470088
   49    54     0     0     0
SMALL
USER_CHARGES

@<TRIPOS>ATOM
      1 C1         -0.0162    1.3433    0.0094 C.2       1 <0>        -0.2200
      2 C2          1.3252    1.7744   -0.0011 C.2       1 <0>        -0.1367
      3 C3          2.0962    0.6548   -0.0144 C.2       1 <0>         0.0417
      4 O1          1.2797   -0.4166   -0.0124 O.3       1 <0>        -0.1522
      5 C4          0.0021   -0.0041    0.0020 C.2       1 <0>        -0.0038
      6 C5          3.5736    0.6193   -0.0287 C.2       1 <0>         0.3510
      7 N1          4.3223   -0.4908   -0.0472 N.2       1 <0>        -0.5158
      8 C6          5.5979   -0.1638   -0.0558 C.2       1 <0>         0.4061
      9 C7          6.8494   -0.9218   -0.0750 C.2       1 <0>        -0.2671
     10 C8          7.1770   -2.2895   -0.0925 C.2       1 <0>         0.1332
     11 N2          8.4769   -2.4024   -0.1057 N.2       1 <0>        -0.2647
     12 N3          9.0564   -1.1275   -0.0976 N.pl3     1 <0>        -0.3560
     13 C9          8.0548   -0.2036   -0.0786 C.2       1 <0>         0.3733
     14 N4          8.0263    1.1363   -0.0638 N.2       1 <0>        -0.5604
     15 C10         6.9037    1.8122   -0.0459 C.2       1 <0>         0.6929
     16 N5          5.6820    1.2042   -0.0426 N.pl3     1 <0>        -0.3764
     17 N6          4.3634    1.6766   -0.0311 N.2       1 <0>        -0.2992
     18 N7          6.9590    3.1863   -0.0316 N.pl3     1 <0>        -0.8013
     19 C11        10.4923   -0.8370   -0.1068 C.3       1 <0>         0.1407
     20 C12        10.9797   -0.7205   -1.5524 C.3       1 <0>         0.0402
     21 N8         12.4195   -0.4292   -1.5616 N.3       1 <0>        -0.5277
     22 C13        12.8821   -0.0993   -2.9191 C.3       1 <0>         0.0528
     23 C14        14.2668    0.5409   -2.8193 C.3       1 <0>        -0.0655
     24 C15        15.1719   -0.3200   -1.9740 C.ar      1 <0>         0.1581
     25 C16        14.6641   -1.2902   -1.1369 C.ar      1 <0>        -0.1243
     26 C17        15.5391   -2.0535   -0.3738 C.ar      1 <0>        -0.0413
     27 C18        16.9001   -1.8148   -0.4835 C.ar      1 <0>        -0.1506
     28 C19        17.3383   -0.8272   -1.3466 C.ar      1 <0>         0.1393
     29 N9         16.4791   -0.1227   -2.0524 N.ar      1 <0>        -0.4764
     30 Br1        18.1373   -2.8227    0.5310 Br        1 <0>        -0.0288
     31 C20        13.1875   -1.5573   -1.0243 C.3       1 <0>         0.0922
     32 H1         -0.8931    1.9736    0.0252 H         1 <0>         0.1595
     33 H2          1.6736    2.7966    0.0006 H         1 <0>         0.1600
     34 H3         -0.8667   -0.6456    0.0076 H         1 <0>         0.2143
     35 H4          6.4721   -3.1077   -0.0946 H         1 <0>         0.2027
     36 H5          7.8178    3.6373   -0.0348 H         1 <0>         0.4310
     37 H6          6.1392    3.7046   -0.0183 H         1 <0>         0.4265
     38 H7         10.6764    0.1019    0.4155 H         1 <0>         0.1107
     39 H8         11.0292   -1.6426    0.3939 H         1 <0>         0.1008
     40 H9         10.7956   -1.6593   -2.0747 H         1 <0>         0.0507
     41 H10        10.4428    0.0852   -2.0531 H         1 <0>         0.0883
     42 H11        12.9416   -1.0090   -3.5167 H         1 <0>         0.0468
     43 H12        12.1874    0.6014   -3.3823 H         1 <0>         0.0917
     44 H13        14.6919    0.6412   -3.8180 H         1 <0>         0.0956
     45 H14        14.1775    1.5275   -2.3647 H         1 <0>         0.0991
     46 H15        15.1660   -2.8177    0.2920 H         1 <0>         0.1463
     47 H16        18.3962   -0.6318   -1.4424 H         1 <0>         0.1666
     48 H17        12.9267   -1.7039    0.0238 H         1 <0>         0.0960
     49 H18        12.9410   -2.4599   -1.5835 H         1 <0>         0.0600
@<TRIPOS>BOND
     1    1    5 2
     2    1    2 1
     3    1   32 1
     4    2    3 2
     5    2   33 1
     6    3    4 1
     7    3    6 1
     8    4    5 1
     9    5   34 1
    10    6   17 2
    11    6    7 1
    12    7    8 2
    13    8   16 1
    14    8    9 1
    15    9   13 2
    16    9   10 1
    17   10   11 2
    18   10   35 1
    19   11   12 1
    20   12   13 1
    21   12   19 1
    22   13   14 1
    23   14   15 2
    24   15   16 1
    25   15   18 1
    26   16   17 1
    27   18   36 1
    28   18   37 1
    29   19   20 1
    30   19   38 1
    31   19   39 1
    32   20   21 1
    33   20   40 1
    34   20   41 1
    35   21   31 1
    36   21   22 1
    37   22   23 1
    38   22   42 1
    39   22   43 1
    40   23   24 1
    41   23   44 1
    42   23   45 1
    43   24   29 ar
    44   24   25 ar
    45   25   26 ar
    46   25   31 1
    47   26   27 ar
    48   26   46 1
    49   27   28 ar
    50   27   30 1
    51   28   29 ar
    52   28   47 1
    53   31   48 1
    54   31   49 1
@<TRIPOS>MOLECULE
CHEMBL186113
   61    65     0     0     0
SMALL
USER_CHARGES

@<TRIPOS>ATOM
      1 C1         -0.0187    1.5258    0.0104 C.3       1 <0>        -0.1730
      2 C2          0.0021   -0.0041    0.0020 C.3       1 <0>         0.1216
      3 N1         -1.3723   -0.5112    0.0124 N.pl3     1 <0>        -0.1315
      4 N2         -2.0653   -0.7707    1.0676 N.2       1 <0>        -0.2894
      5 C3         -3.2407   -1.2029    0.6817 C.2       1 <0>         0.1525
      6 N3         -3.2374   -1.1968   -0.6514 N.2       1 <0>        -0.2600
      7 N4         -2.0832   -0.7636   -1.0313 N.2       1 <0>        -0.0531
      8 C4         -4.3787   -1.6260    1.5744 C.3       1 <0>         0.1593
      9 H1         -4.2051   -1.2700    2.5899 H         1 <0>         0.1221
     10 C5         -4.5036   -3.1620    1.5718 C.3       1 <0>         0.0527
     11 H2         -3.7765   -3.6027    0.8897 H         1 <0>         0.0865
     12 C6         -5.9448   -3.4246    1.0712 C.3       1 <0>         0.0830
     13 H3         -5.9517   -3.6441    0.0035 H         1 <0>         0.0946
     14 C7         -6.6414   -2.0710    1.3622 C.3       1 <0>         0.3242
     15 H4         -6.9431   -2.0116    2.4079 H         1 <0>         0.1264
     16 O1         -5.6164   -1.0928    1.0744 O.3       1 <0>        -0.3437
     17 N5         -7.7979   -1.8862    0.4820 N.pl3     1 <0>        -0.4754
     18 C8         -7.8094   -1.2148   -0.7058 C.2       1 <0>         0.2477
     19 N6         -9.0028   -1.2470   -1.2225 N.2       1 <0>        -0.4519
     20 C9         -9.8313   -1.9390   -0.4020 C.ar      1 <0>        -0.1577
     21 C10        -9.0666   -2.3615    0.6980 C.ar      1 <0>         0.3652
     22 N7         -9.6499   -3.0728    1.6574 N.ar      1 <0>        -0.5976
     23 C11       -10.9337   -3.3833    1.5793 C.ar      1 <0>         0.6324
     24 N8        -11.6923   -3.0076    0.5575 N.ar      1 <0>        -0.6277
     25 C12       -11.1922   -2.2878   -0.4408 C.ar      1 <0>         0.5429
     26 N9        -11.9907   -1.9020   -1.5029 N.pl3     1 <0>        -0.8184
     27 N10       -11.5054   -4.1265    2.5989 N.pl3     1 <0>        -0.6777
     28 C13       -12.9247   -4.4841    2.5376 C.3       1 <0>         0.1758
     29 H5        -13.2089   -4.6672    1.5013 H         1 <0>         0.1048
     30 C14       -13.1682   -5.7485    3.3641 C.3       1 <0>        -0.0859
     31 C15       -12.4376   -6.9074    2.7364 C.ar      1 <0>        -0.0818
     32 C16       -13.0651   -7.6839    1.7802 C.ar      1 <0>        -0.1169
     33 C17       -12.3949   -8.7470    1.2044 C.ar      1 <0>        -0.1193
     34 C18       -11.0970   -9.0333    1.5844 C.ar      1 <0>        -0.1247
     35 C19       -10.4692   -8.2563    2.5399 C.ar      1 <0>        -0.1159
     36 C20       -11.1379   -7.1906    3.1126 C.ar      1 <0>        -0.1069
     37 C21       -13.7647   -3.3365    3.1017 C.3       1 <0>         0.0626
     38 O2        -13.4757   -3.1731    4.4916 O.3       1 <0>        -0.5690
     39 O3         -6.5566   -4.4832    1.8109 O.3       1 <0>        -0.5175
     40 O4         -4.3275   -3.6803    2.8918 O.3       1 <0>        -0.5327
     41 H6          1.0039    1.9031    0.0027 H         1 <0>         0.0959
     42 H7         -0.5459    1.8868   -0.8726 H         1 <0>         0.0717
     43 H8         -0.5289    1.8773    0.9072 H         1 <0>         0.0708
     44 H9          0.5123   -0.3556   -0.8948 H         1 <0>         0.1219
     45 H10         0.5293   -0.3651    0.8851 H         1 <0>         0.1193
     46 H11        -6.9542   -0.7281   -1.1509 H         1 <0>         0.2198
     47 H12       -11.6124   -1.3851   -2.2313 H         1 <0>         0.4194
     48 H13       -12.9287   -2.1484   -1.5190 H         1 <0>         0.4078
     49 H14       -10.9659   -4.4101    3.3535 H         1 <0>         0.4147
     50 H15       -12.8021   -5.5951    4.3793 H         1 <0>         0.0880
     51 H16       -14.2363   -5.9644    3.3918 H         1 <0>         0.0883
     52 H17       -14.0791   -7.4602    1.4833 H         1 <0>         0.1202
     53 H18       -12.8854   -9.3540    0.4579 H         1 <0>         0.1196
     54 H19       -10.5736   -9.8643    1.1351 H         1 <0>         0.1185
     55 H20        -9.4553   -8.4802    2.8371 H         1 <0>         0.1199
     56 H21       -10.6461   -6.5812    3.8564 H         1 <0>         0.1188
     57 H22       -13.5252   -2.4155    2.5701 H         1 <0>         0.0530
     58 H23       -14.8230   -3.5644    2.9750 H         1 <0>         0.0536
     59 H24       -13.9737   -2.4610    4.9158 H         1 <0>         0.3785
     60 H25        -6.1014   -5.3327    1.7315 H         1 <0>         0.3866
     61 H26        -3.4599   -3.4929    3.2754 H         1 <0>         0.3875
@<TRIPOS>BOND
     1    1    2 1
     2    1   41 1
     3    1   42 1
     4    1   43 1
     5    2    3 1
     6    2   44 1
     7    2   45 1
     8    3    7 1
     9    3    4 1
    10    4    5 2
    11    5    6 1
    12    5    8 1
    13    6    7 2
    14    8    9 1
    15    8   16 1
    16    8   10 1
    17   10   11 1
    18   10   12 1
    19   10   40 1
    20   12   13 1
    21   12   14 1
    22   12   39 1
    23   14   15 1
    24   14   16 1
    25   14   17 1
    26   17   21 1
    27   17   18 1
    28   18   19 2
    29   18   46 1
    30   19   20 1
    31   20   25 ar
    32   20   21 ar
    33   21   22 ar
    34   22   23 ar
    35   23   24 ar
    36   23   27 1
    37   24   25 ar
    38   25   26 1
    39   26   47 1
    40   26   48 1
    41   27   28 1
    42   27   49 1
    43   28   29 1
    44   28   30 1
    45   28   37 1
    46   30   31 1
    47   30   50 1
    48   30   51 1
    49   31   36 ar
    50   31   32 ar
    51   32   33 ar
    52   32   52 1
    53   33   34 ar
    54   33   53 1
    55   34   35 ar
    56   34   54 1
    57   35   36 ar
    58   35   55 1
    59   36   56 1
    60   37   38 1
    61   37   57 1
    62   37   58 1
    63   38   59 1
    64   39   60 1
    65   40   61 1
@<TRIPOS>MOLECULE
CHEMBL256755
   70    74     0     0     0
SMALL
USER_CHARGES

@<TRIPOS>ATOM
      1 C1          8.3276   -1.9632   -0.0229 C.3       1 <0>        -0.0788
      2 C2          7.2456   -3.0122   -0.0325 C.2       1 <0>         0.0216
      3 C3          7.4442   -4.3460   -0.0478 C.2       1 <0>        -0.2236
      4 C4          6.1740   -4.9523   -0.0521 C.2       1 <0>        -0.1070
      5 C5          5.2590   -3.9452   -0.0390 C.2       1 <0>         0.0061
      6 O1          5.9255   -2.7740   -0.0213 O.3       1 <0>        -0.1520
      7 C6          3.7924   -4.1072   -0.0379 C.ar      1 <0>         0.4644
      8 N1          3.2761   -5.3312   -0.0451 N.ar      1 <0>        -0.5043
      9 C7          1.9604   -5.5132   -0.0444 C.ar      1 <0>         0.4400
     10 C8          1.1213   -4.4006   -0.0358 C.ar      1 <0>        -0.2605
     11 C9          1.6977   -3.1348   -0.0284 C.ar      1 <0>         0.4529
     12 N2          3.0215   -3.0261   -0.0242 N.ar      1 <0>        -0.5448
     13 N3          0.8947   -1.9926   -0.0198 N.pl3     1 <0>        -0.3331
     14 C10         1.2507   -0.7669    0.4467 C.2       1 <0>         0.1173
     15 C11         0.1939    0.0593    0.2742 C.2       1 <0>        -0.2610
     16 C12        -0.8398   -0.6788   -0.3144 C.2       1 <0>         0.1020
     17 N4         -0.4198   -1.9040   -0.4962 N.2       1 <0>        -0.2849
     18 C13        -2.2022   -0.1499   -0.6819 C.3       1 <0>        -0.0761
     19 C14         2.5818   -0.3957    1.0479 C.3       1 <0>        -0.0889
     20 N5          1.4270   -6.7978   -0.0524 N.am      1 <0>        -0.6506
     21 C15         2.2422   -7.8653   -0.1639 C.2       1 <0>         0.5055
     22 O2          3.4451   -7.7122   -0.1643 O.2       1 <0>        -0.4283
     23 C16         1.6587   -9.2492   -0.2879 C.3       1 <0>         0.0447
     24 O3          2.7164  -10.2045   -0.3918 O.3       1 <0>        -0.2825
     25 C17         2.3590  -11.5102   -0.5112 C.ar      1 <0>         0.1299
     26 C18         1.0175  -11.8642   -0.5339 C.ar      1 <0>        -0.2081
     27 C19         0.6568  -13.1919   -0.6559 C.ar      1 <0>        -0.0820
     28 C20         1.6313  -14.1681   -0.7553 C.ar      1 <0>        -0.1510
     29 C21         2.9685  -13.8180   -0.7325 C.ar      1 <0>        -0.0779
     30 C22         3.3345  -12.4908   -0.6164 C.ar      1 <0>        -0.1062
     31 C23         4.7923  -12.1093   -0.5979 C.3       1 <0>        -0.0689
     32 C24         5.2712  -11.9952    0.8507 C.3       1 <0>         0.0671
     33 N6          6.6923  -11.6234    0.8688 N.3       1 <0>        -0.5340
     34 C25         7.5258  -12.7006    0.3156 C.3       1 <0>         0.0140
     35 C26         8.9885  -12.2488    0.2981 C.3       1 <0>         0.0628
     36 O4          9.3852  -11.8833    1.6226 O.3       1 <0>        -0.3862
     37 C27         8.5948  -10.8362    2.1919 C.3       1 <0>         0.0636
     38 C28         7.1281  -11.2736    2.2286 C.3       1 <0>         0.0192
     39 H1          7.8730   -0.9726   -0.0058 H         1 <0>         0.0791
     40 H2          8.9509   -2.0922    0.8620 H         1 <0>         0.0912
     41 H3          8.9413   -2.0660   -0.9178 H         1 <0>         0.0911
     42 H4          8.3977   -4.8532   -0.0557 H         1 <0>         0.1573
     43 H5          5.9658   -6.0120   -0.0639 H         1 <0>         0.1669
     44 H6          0.0478   -4.5186   -0.0354 H         1 <0>         0.1622
     45 H7          0.1544    1.1044    0.5435 H         1 <0>         0.1595
     46 H8         -2.1808    0.2311   -1.7029 H         1 <0>         0.0834
     47 H9         -2.9355   -0.9532   -0.6092 H         1 <0>         0.0770
     48 H10        -2.4759    0.6547    0.0005 H         1 <0>         0.0841
     49 H11         3.2532   -0.0531    0.2605 H         1 <0>         0.0888
     50 H12         2.4411    0.4015    1.7778 H         1 <0>         0.0835
     51 H13         3.0138   -1.2670    1.5402 H         1 <0>         0.0786
     52 H14         0.4683   -6.9254    0.0222 H         1 <0>         0.4258
     53 H15         1.0554   -9.4695    0.5927 H         1 <0>         0.0984
     54 H16         1.0333   -9.3013   -1.1791 H         1 <0>         0.0993
     55 H17         0.2561  -11.1023   -0.4559 H         1 <0>         0.1277
     56 H18        -0.3871  -13.4680   -0.6733 H         1 <0>         0.1262
     57 H19         1.3473  -15.2057   -0.8506 H         1 <0>         0.1255
     58 H20         3.7277  -14.5822   -0.8100 H         1 <0>         0.1292
     59 H21         5.3743  -12.8728   -1.1139 H         1 <0>         0.0706
     60 H22         4.9235  -11.1510   -1.1004 H         1 <0>         0.0884
     61 H23         4.6892  -11.2316    1.3668 H         1 <0>         0.0783
     62 H24         5.1400  -12.9535    1.3533 H         1 <0>         0.0328
     63 H25         7.4275  -13.5917    0.9354 H         1 <0>         0.0419
     64 H26         7.2023  -12.9257   -0.7007 H         1 <0>         0.0882
     65 H27         9.6173  -13.0650   -0.0579 H         1 <0>         0.0975
     66 H28         9.0963  -11.3899   -0.3643 H         1 <0>         0.0606
     67 H29         8.9387  -10.6306    3.2056 H         1 <0>         0.0976
     68 H30         8.6911   -9.9361    1.5847 H         1 <0>         0.0614
     69 H31         6.5141  -10.4571    2.6088 H         1 <0>         0.0864
     70 H32         7.0234  -12.1419    2.8790 H         1 <0>         0.0413
@<TRIPOS>BOND
     1    1    2 1
     2    1   39 1
     3    1   40 1
     4    1   41 1
     5    2    6 1
     6    2    3 2
     7    3    4 1
     8    3   42 1
     9    4    5 2
    10    4   43 1
    11    5    6 1
    12    5    7 1
    13    7   12 ar
    14    7    8 ar
    15    8    9 ar
    16    9   10 ar
    17    9   20 1
    18   10   11 ar
    19   10   44 1
    20   11   12 ar
    21   11   13 1
    22   13   17 1
    23   13   14 1
    24   14   15 2
    25   14   19 1
    26   15   16 1
    27   15   45 1
    28   16   17 2
    29   16   18 1
    30   18   46 1
    31   18   47 1
    32   18   48 1
    33   19   49 1
    34   19   50 1
    35   19   51 1
    36   20   21 am
    37   20   52 1
    38   21   22 2
    39   21   23 1
    40   23   24 1
    41   23   53 1
    42   23   54 1
    43   24   25 1
    44   25   30 ar
    45   25   26 ar
    46   26   27 ar
    47   26   55 1
    48   27   28 ar
    49   27   56 1
    50   28   29 ar
    51   28   57 1
    52   29   30 ar
    53   29   58 1
    54   30   31 1
    55   31   32 1
    56   31   59 1
    57   31   60 1
    58   32   33 1
    59   32   61 1
    60   32   62 1
    61   33   38 1
    62   33   34 1
    63   34   35 1
    64   34   63 1
    65   34   64 1
    66   35   36 1
    67   35   65 1
    68   35   66 1
    69   36   37 1
    70   37   38 1
    71   37   67 1
    72   37   68 1
    73   38   69 1
    74   38   70 1
@<TRIPOS>MOLECULE
CHEMBL558291
   33    35     0     0     0
SMALL
USER_CHARGES

@<TRIPOS>ATOM
      1 C1         -0.0162    1.3409    0.0094 C.2       1 <0>        -0.2183
      2 C2          1.3313    1.7689   -0.0012 C.2       1 <0>        -0.1778
      3 C3          2.0923    0.6599   -0.0144 C.2       1 <0>        -0.0440
      4 O1          1.2819   -0.4111   -0.0124 O.3       1 <0>        -0.1707
      5 C4          0.0021   -0.0041    0.0020 C.2       1 <0>        -0.0245
      6 C5          3.5989    0.6249   -0.0294 C.3       1 <0>         0.2018
      7 N1          4.1006    0.6065    1.3469 N.am      1 <0>        -0.7058
      8 C6          5.4277    0.5745    1.5799 C.2       1 <0>         0.5763
      9 O2          6.2078    0.5610    0.6487 O.2       1 <0>        -0.5142
     10 C7          5.9361    0.5558    2.9742 C.ar      1 <0>         0.1829
     11 C8          7.3040    0.5286    3.2255 C.ar      1 <0>        -0.2132
     12 C9          7.7346    0.5117    4.5603 C.ar      1 <0>         0.3054
     13 N2          6.8234    0.5223    5.5327 N.ar      1 <0>        -0.5444
     14 C10         5.5304    0.5483    5.2495 C.ar      1 <0>         0.5816
     15 N3          5.0883    0.5704    4.0024 N.ar      1 <0>        -0.5531
     16 N4          4.6146    0.5581    6.2878 N.pl3     1 <0>        -0.8157
     17 C11         9.1735    0.4822    4.8827 C.2       1 <0>        -0.0057
     18 C12         9.7122    0.4583    6.1329 C.2       1 <0>        -0.1258
     19 C13        11.1099    0.4345    5.9714 C.2       1 <0>        -0.2242
     20 C14        11.3552    0.4448    4.6450 C.2       1 <0>        -0.0034
     21 O3         10.1839    0.4682    3.9911 O.3       1 <0>        -0.1620
     22 H1         -0.8920    1.9726    0.0252 H         1 <0>         0.1521
     23 H2          1.6822    2.7903    0.0004 H         1 <0>         0.1519
     24 H3         -0.8653   -0.6475    0.0072 H         1 <0>         0.2064
     25 H4          3.9364   -0.2706   -0.5512 H         1 <0>         0.0914
     26 H5          3.9777    1.5089   -0.5424 H         1 <0>         0.1054
     27 H6          3.4778    0.6173    2.0904 H         1 <0>         0.4160
     28 H7          8.0162    0.5203    2.4136 H         1 <0>         0.1636
     29 H8          4.9237    0.5459    7.2071 H         1 <0>         0.4182
     30 H9          3.6640    0.5772    6.0958 H         1 <0>         0.4182
     31 H10         9.1714    0.4582    7.0678 H         1 <0>         0.1605
     32 H11        11.8470    0.4124    6.7604 H         1 <0>         0.1577
     33 H12        12.3325    0.4326    4.1855 H         1 <0>         0.2134
@<TRIPOS>BOND
     1    1    5 2
     2    1    2 1
     3    1   22 1
     4    2    3 2
     5    2   23 1
     6    3    4 1
     7    3    6 1
     8    4    5 1
     9    5   24 1
    10    6    7 1
    11    6   25 1
    12    6   26 1
    13    7    8 am
    14    7   27 1
    15    8    9 2
    16    8   10 1
    17   10   15 ar
    18   10   11 ar
    19   11   12 ar
    20   11   28 1
    21   12   13 ar
    22   12   17 1
    23   13   14 ar
    24   14   15 ar
    25   14   16 1
    26   16   29 1
    27   16   30 1
    28   17   21 1
    29   17   18 2
    30   18   19 1
    31   18   31 1
    32   19   20 2
    33   19   32 1
    34   20   21 1
    35   20   33 1
@<TRIPOS>MOLECULE
CHEMBL360124
   36    39     0     0     0
SMALL
USER_CHARGES

@<TRIPOS>ATOM
      1 C1         -0.0184    1.5028    0.0103 C.3       1 <0>        -0.1154
      2 C2          0.0021   -0.0041    0.0020 C.ar      1 <0>        -0.0930
      3 C3          0.0057   -0.6864   -1.2015 C.ar      1 <0>        -0.0939
      4 C4          0.0249   -2.0698   -1.2145 C.ar      1 <0>        -0.1023
      5 C5          0.0400   -2.7713   -0.0279 C.ar      1 <0>        -0.0727
      6 C6          0.0365   -2.0937    1.1893 C.ar      1 <0>        -0.0658
      7 C7          0.0228   -0.6971    1.1941 C.ar      1 <0>        -0.0658
      8 C8          0.0555   -3.0747    2.2997 C.ar      1 <0>         0.2575
      9 C9          0.0708   -4.3654    1.7768 C.ar      1 <0>        -0.2496
     10 C10         0.0905   -5.4479    2.6493 C.ar      1 <0>         0.2828
     11 N1          0.0940   -5.2135    3.9624 N.ar      1 <0>        -0.5597
     12 C11         0.0790   -3.9741    4.4272 C.ar      1 <0>         0.5762
     13 N2          0.0598   -2.9215    3.6243 N.ar      1 <0>        -0.5626
     14 N3          0.0828   -3.7721    5.7967 N.pl3     1 <0>        -0.8204
     15 C12         0.1068   -6.8369    2.1296 C.ar      1 <0>        -0.0558
     16 C13        -0.5820   -7.1545    0.9603 C.ar      1 <0>        -0.0931
     17 C14        -0.5629   -8.4485    0.4811 C.ar      1 <0>        -0.1225
     18 C15         0.1376   -9.4297    1.1594 C.ar      1 <0>        -0.1027
     19 C16         0.8230   -9.1204    2.3204 C.ar      1 <0>        -0.1245
     20 C17         0.8157   -7.8284    2.8057 C.ar      1 <0>        -0.0739
     21 C18         0.0620   -4.2502    0.2752 C.3       1 <0>        -0.0253
     22 H1          1.0042    1.8801    0.0026 H         1 <0>         0.0729
     23 H2         -0.5455    1.8639   -0.8728 H         1 <0>         0.0696
     24 H3         -0.5286    1.8543    0.9071 H         1 <0>         0.0684
     25 H4         -0.0068   -0.1384   -2.1321 H         1 <0>         0.1317
     26 H5          0.0277   -2.6005   -2.1551 H         1 <0>         0.1317
     27 H6          0.0240   -0.1601    2.1311 H         1 <0>         0.1293
     28 H7          0.0962   -4.5323    6.3990 H         1 <0>         0.4161
     29 H8          0.0720   -2.8704    6.1540 H         1 <0>         0.4155
     30 H9         -1.1298   -6.3893    0.4304 H         1 <0>         0.1287
     31 H10        -1.0963   -8.6957   -0.4249 H         1 <0>         0.1290
     32 H11         0.1492  -10.4413    0.7812 H         1 <0>         0.1262
     33 H12         1.3680   -9.8905    2.8460 H         1 <0>         0.1278
     34 H13         1.3545   -7.5871    3.7100 H         1 <0>         0.1293
     35 H14        -0.8273   -4.7304   -0.1330 H         1 <0>         0.1024
     36 H15         0.9602   -4.7056   -0.1417 H         1 <0>         0.1039
@<TRIPOS>BOND
     1    1    2 1
     2    1   22 1
     3    1   23 1
     4    1   24 1
     5    2    7 ar
     6    2    3 ar
     7    3    4 ar
     8    3   25 1
     9    4    5 ar
    10    4   26 1
    11    5   21 1
    12    5    6 ar
    13    6    7 ar
    14    6    8 1
    15    7   27 1
    16    8   13 ar
    17    8    9 ar
    18    9   10 ar
    19    9   21 1
    20   10   11 ar
    21   10   15 1
    22   11   12 ar
    23   12   13 ar
    24   12   14 1
    25   14   28 1
    26   14   29 1
    27   15   20 ar
    28   15   16 ar
    29   16   17 ar
    30   16   30 1
    31   17   18 ar
    32   17   31 1
    33   18   19 ar
    34   18   32 1
    35   19   20 ar
    36   19   33 1
    37   20   34 1
    38   21   35 1
    39   21   36 1
@<TRIPOS>MOLECULE
CHEMBL195543
   38    42     0     0     0
SMALL
USER_CHARGES

@<TRIPOS>ATOM
      1 C1         -0.0162    1.3448    0.0094 C.2       1 <0>        -0.2230
      2 C2          1.3230    1.7760   -0.0010 C.2       1 <0>        -0.1408
      3 C3          2.0960    0.6543   -0.0144 C.2       1 <0>         0.0115
      4 O1          1.2786   -0.4173   -0.0124 O.3       1 <0>        -0.1485
      5 C4          0.0021   -0.0041    0.0020 C.2       1 <0>        -0.0122
      6 C5          3.5685    0.6188   -0.0294 C.ar      1 <0>         0.3600
      7 C6          4.2724   -0.3973    0.6484 C.ar      1 <0>        -0.0861
      8 C7          5.6778   -0.3798    0.5989 C.ar      1 <0>         0.3343
      9 N1          6.2899    0.5846   -0.0786 N.ar      1 <0>        -0.5535
     10 C8          5.5915    1.5208   -0.7017 C.ar      1 <0>         0.5901
     11 N2          4.2666    1.5439   -0.6890 N.ar      1 <0>        -0.5473
     12 N3          6.2701    2.5086   -1.3970 N.pl3     1 <0>        -0.8170
     13 N4          6.0951   -1.4634    1.3306 N.pl3     1 <0>        -0.4755
     14 C9          4.9797   -2.0966    1.7945 C.2       1 <0>         0.2610
     15 N5          3.9124   -1.4689    1.3926 N.2       1 <0>        -0.4499
     16 C10         7.4833   -1.8661    1.5691 C.3       1 <0>         0.1597
     17 C11         8.0304   -1.1076    2.7508 C.ar      1 <0>        -0.1083
     18 C12         8.0963   -1.7160    3.9908 C.ar      1 <0>        -0.0682
     19 C13         8.5991   -1.0213    5.0783 C.ar      1 <0>         0.0332
     20 C14         9.0380    0.2913    4.9199 C.ar      1 <0>         0.0592
     21 C15         8.9702    0.8951    3.6752 C.ar      1 <0>        -0.1009
     22 C16         8.4709    0.1938    2.5918 C.ar      1 <0>        -0.0182
     23 Cl1         8.3927    0.9505    1.0314 Cl        1 <0>         0.0031
     24 O2          9.4824    0.7512    6.1258 O.3       1 <0>        -0.3024
     25 C17         8.9338   -0.1490    7.1065 C.3       1 <0>         0.2124
     26 O3          8.7689   -1.3833    6.3837 O.3       1 <0>        -0.3026
     27 H1         -0.8933    1.9747    0.0252 H         1 <0>         0.1549
     28 H2          1.6709    2.7985    0.0008 H         1 <0>         0.1553
     29 H3         -0.8670   -0.6453    0.0072 H         1 <0>         0.2096
     30 H4          7.2398    2.5059   -1.4210 H         1 <0>         0.4126
     31 H5          5.7755    3.2029   -1.8598 H         1 <0>         0.4185
     32 H6          4.9817   -2.9878    2.4046 H         1 <0>         0.2246
     33 H7          7.5211   -2.9358    1.7749 H         1 <0>         0.1161
     34 H8          8.0827   -1.6445    0.6861 H         1 <0>         0.1135
     35 H9          7.7551   -2.7336    4.1114 H         1 <0>         0.1488
     36 H10         9.3099    1.9126    3.5496 H         1 <0>         0.1476
     37 H11         9.6283   -0.2809    7.9362 H         1 <0>         0.1382
     38 H12         7.9716    0.2161    7.4656 H         1 <0>         0.0898
@<TRIPOS>BOND
     1    1    5 2
     2    1    2 1
     3    1   27 1
     4    2    3 2
     5    2   28 1
     6    3    4 1
     7    3    6 1
     8    4    5 1
     9    5   29 1
    10    6   11 ar
    11    6    7 ar
    12    7   15 1
    13    7    8 ar
    14    8    9 ar
    15    8   13 1
    16    9   10 ar
    17   10   11 ar
    18   10   12 1
    19   12   30 1
    20   12   31 1
    21   13   14 1
    22   13   16 1
    23   14   15 2
    24   14   32 1
    25   16   17 1
    26   16   33 1
    27   16   34 1
    28   17   22 ar
    29   17   18 ar
    30   18   19 ar
    31   18   35 1
    32   19   26 1
    33   19   20 ar
    34   20   21 ar
    35   20   24 1
    36   21   22 ar
    37   21   36 1
    38   22   23 1
    39   24   25 1
    40   25   26 1
    41   25   37 1
    42   25   38 1
@<TRIPOS>MOLECULE
CHEMBL113967
   43    46     0     0     0
SMALL
USER_CHARGES

@<TRIPOS>ATOM
      1 C1          0.0645    1.4708   -0.0858 C.3       1 <0>        -0.1417
      2 C2         -0.3406    0.0533    0.3233 C.3       1 <0>         0.1442
      3 C3         -1.8123    0.0423    0.7484 C.3       1 <0>        -0.1334
      4 C4         -2.1732   -1.3440    1.2872 C.3       1 <0>        -0.1225
      5 C5         -1.3136   -1.6557    2.5144 C.3       1 <0>        -0.1371
      6 C6          0.1638   -1.6640    2.1094 C.3       1 <0>         0.0780
      7 N1          0.4827   -0.3861    1.4581 N.am      1 <0>        -0.5978
      8 C7          1.5109    0.3686    1.8934 C.2       1 <0>         0.5640
      9 O1          1.6999    1.4711    1.4174 O.2       1 <0>        -0.5098
     10 C8          2.4092   -0.1443    2.9500 C.2       1 <0>        -0.0181
     11 C9          2.6278   -1.5311    3.0890 C.2       1 <0>        -0.2569
     12 C10         3.4561   -1.9943    4.0636 C.2       1 <0>         0.4528
     13 N2          4.0828   -1.1319    4.9141 N.pl3     1 <0>        -0.3145
     14 C11         3.8948    0.2192    4.8095 C.2       1 <0>         0.3298
     15 C12         3.0507    0.7331    3.8118 C.2       1 <0>        -0.1048
     16 N3          4.6217    0.8013    5.7570 N.2       1 <0>        -0.5160
     17 C13         5.2664   -0.1289    6.4623 C.2       1 <0>         0.3436
     18 N4          4.9686   -1.3256    5.9846 N.2       1 <0>        -0.3219
     19 C14         6.1719    0.1360    7.5997 C.2       1 <0>         0.0674
     20 C15         6.4818    1.3597    8.1043 C.2       1 <0>        -0.1273
     21 C16         7.3719    1.1441    9.1747 C.2       1 <0>        -0.1558
     22 C17         7.5598   -0.1882    9.2700 C.2       1 <0>        -0.0094
     23 O2          6.8291   -0.7939    8.3203 O.3       1 <0>        -0.1443
     24 Br1         8.6634   -1.0586   10.5350 Br        1 <0>         0.0662
     25 N5          3.6651   -3.3570    4.1937 N.pl3     1 <0>        -0.8444
     26 H1          1.0954    1.4662   -0.4398 H         1 <0>         0.0728
     27 H2         -0.5917    1.8205   -0.8828 H         1 <0>         0.0474
     28 H3         -0.0215    2.1356    0.7737 H         1 <0>         0.0736
     29 H4         -0.1958   -0.6251   -0.5175 H         1 <0>         0.0758
     30 H5         -1.9717    0.7881    1.5271 H         1 <0>         0.0693
     31 H6         -2.4411    0.2734   -0.1115 H         1 <0>         0.0774
     32 H7         -3.2264   -1.3618    1.5675 H         1 <0>         0.0678
     33 H8         -1.9901   -2.0923    0.5161 H         1 <0>         0.0652
     34 H9         -1.4776   -0.8939    3.2765 H         1 <0>         0.0691
     35 H10        -1.5874   -2.6332    2.9116 H         1 <0>         0.0777
     36 H11         0.7852   -1.7872    2.9964 H         1 <0>         0.1104
     37 H12         0.3477   -2.4839    1.4151 H         1 <0>         0.0747
     38 H13         2.1373   -2.2248    2.4221 H         1 <0>         0.1745
     39 H14         2.9000    1.7985    3.7190 H         1 <0>         0.1699
     40 H15         6.1164    2.3131    7.7522 H         1 <0>         0.1739
     41 H16         7.8192    1.9021    9.8006 H         1 <0>         0.1715
     42 H17         3.2219   -3.9753    3.5919 H         1 <0>         0.4225
     43 H18         4.2547   -3.6933    4.8867 H         1 <0>         0.4161
@<TRIPOS>BOND
     1    1    2 1
     2    1   26 1
     3    1   27 1
     4    1   28 1
     5    2    7 1
     6    2    3 1
     7    2   29 1
     8    3    4 1
     9    3   30 1
    10    3   31 1
    11    4    5 1
    12    4   32 1
    13    4   33 1
    14    5    6 1
    15    5   34 1
    16    5   35 1
    17    6    7 1
    18    6   36 1
    19    6   37 1
    20    7    8 am
    21    8    9 2
    22    8   10 1
    23   10   15 2
    24   10   11 1
    25   11   12 2
    26   11   38 1
    27   12   13 1
    28   12   25 1
    29   13   18 1
    30   13   14 1
    31   14   15 1
    32   14   16 2
    33   15   39 1
    34   16   17 1
    35   17   18 2
    36   17   19 1
    37   19   23 1
    38   19   20 2
    39   20   21 1
    40   20   40 1
    41   21   22 2
    42   21   41 1
    43   22   23 1
    44   22   24 1
    45   25   42 1
    46   25   43 1
@<TRIPOS>MOLECULE
CHEMBL221561
   55    60     0     0     0
SMALL
USER_CHARGES

@<TRIPOS>ATOM
      1 C1         -0.0162    1.3433    0.0094 C.2       1 <0>        -0.2193
      2 C2          1.3252    1.7744   -0.0011 C.2       1 <0>        -0.1212
      3 C3          2.0963    0.6547   -0.0144 C.2       1 <0>         0.0277
      4 O1          1.2798   -0.4167   -0.0124 O.3       1 <0>        -0.1602
      5 C4          0.0021   -0.0041    0.0020 C.2       1 <0>         0.0002
      6 C5          3.5735    0.6192   -0.0292 C.2       1 <0>         0.3444
      7 N1          4.3782    1.6975   -0.0257 N.2       1 <0>        -0.4809
      8 C6          5.6284    1.3133   -0.0438 C.2       1 <0>         0.4987
      9 N2          6.7827    2.0136   -0.0426 N.2       1 <0>        -0.5248
     10 C7          7.9149    1.3544   -0.2245 C.2       1 <0>         0.6710
     11 N3          7.9251    0.0030   -0.4737 N.pl3     1 <0>        -0.6597
     12 C8          6.8335   -0.7612   -0.0614 C.2       1 <0>         0.6287
     13 N4          5.6350   -0.0666   -0.0535 N.pl3     1 <0>        -0.4289
     14 N5          4.3125   -0.4776   -0.0421 N.2       1 <0>        -0.2732
     15 N6          6.9320   -2.0133    0.2840 N.2       1 <0>        -0.6686
     16 N7          9.1029    2.0335   -0.1638 N.pl3     1 <0>        -0.5977
     17 C9         10.3866    1.3423   -0.3661 C.3       1 <0>         0.0881
     18 C10        11.3005    1.6893    0.8113 C.3       1 <0>        -0.0207
     19 N8         11.4311    3.1501    0.9330 N.4       1 <0>        -0.3841
     20 C11        12.3915    3.4256    2.0122 C.3       1 <0>         0.0007
     21 C12        12.6152    4.9311    2.1496 C.3       1 <0>        -0.1226
     22 H1         13.3336    5.1226    2.9467 H         1 <0>         0.1272
     23 C13        11.2787    5.5987    2.4911 C.3       1 <0>        -0.1409
     24 C14        10.2734    5.2712    1.3860 C.3       1 <0>        -0.1363
     25 C15        10.1305    3.7519    1.2449 C.3       1 <0>         0.0147
     26 H2          9.7485    3.3332    2.1760 H         1 <0>         0.1477
     27 C16         9.1400    3.4780    0.0994 C.3       1 <0>         0.1095
     28 C17        13.1504    5.4926    0.8309 C.3       1 <0>         0.1221
     29 N9         13.4764    6.9108    1.0005 N.pl3     1 <0>        -0.3940
     30 C18        14.6544    7.5035    0.7394 C.2       1 <0>         0.2665
     31 N10        14.5397    8.7761    1.0206 N.2       1 <0>        -0.5329
     32 C19        13.3088    9.0323    1.4617 C.2       1 <0>         0.2202
     33 N11        12.6186    7.9223    1.4624 N.2       1 <0>        -0.3224
     34 H3         -0.8931    1.9736    0.0252 H         1 <0>         0.1619
     35 H4          1.6735    2.7967    0.0011 H         1 <0>         0.1635
     36 H5         -0.8667   -0.6456    0.0069 H         1 <0>         0.2159
     37 H6          6.1427   -2.5028    0.5637 H         1 <0>         0.3850
     38 H7         10.2237    0.2651   -0.4012 H         1 <0>         0.1287
     39 H8         10.8427    1.6772   -1.2978 H         1 <0>         0.1140
     40 H9         10.8752    1.2862    1.7304 H         1 <0>         0.1402
     41 H10        12.2846    1.2505    0.6469 H         1 <0>         0.1542
     42 H11        12.0025    3.0313    2.9510 H         1 <0>         0.1398
     43 H12        13.3399    2.9391    1.7844 H         1 <0>         0.1389
     44 H13        10.9121    5.2172    3.4440 H         1 <0>         0.0846
     45 H14        11.4145    6.6783    2.5540 H         1 <0>         0.1278
     46 H15         9.3052    5.7042    1.6374 H         1 <0>         0.1217
     47 H16        10.6225    5.6913    0.4427 H         1 <0>         0.0906
     48 H17         9.4634    4.0037   -0.7990 H         1 <0>         0.1045
     49 H18         8.1461    3.8217    0.3858 H         1 <0>         0.1536
     50 H19        14.0476    4.9458    0.5406 H         1 <0>         0.1131
     51 H20        12.3921    5.3844    0.0554 H         1 <0>         0.0819
     52 H21        15.5410    7.0144    0.3637 H         1 <0>         0.2221
     53 H22        12.9399   10.0009    1.7654 H         1 <0>         0.2228
     54 H23         8.6760   -0.4109   -0.9272 H         1 <0>         0.4369
     55 H24        11.7789    3.5306    0.0656 H         1 <0>         0.4191
@<TRIPOS>BOND
     1    1    5 2
     2    1    2 1
     3    1   34 1
     4    2    3 2
     5    2   35 1
     6    3    4 1
     7    3    6 1
     8    4    5 1
     9    5   36 1
    10    6   14 2
    11    6    7 1
    12    7    8 2
    13    8   13 1
    14    8    9 1
    15    9   10 2
    16   10   11 1
    17   10   16 1
    18   11   12 1
    19   11   54 1
    20   12   13 1
    21   12   15 2
    22   13   14 1
    23   15   37 1
    24   16   27 1
    25   16   17 1
    26   17   18 1
    27   17   38 1
    28   17   39 1
    29   18   19 1
    30   18   40 1
    31   18   41 1
    32   19   25 1
    33   19   20 1
    34   19   55 1
    35   20   21 1
    36   20   42 1
    37   20   43 1
    38   21   22 1
    39   21   23 1
    40   21   28 1
    41   23   24 1
    42   23   44 1
    43   23   45 1
    44   24   25 1
    45   24   46 1
    46   24   47 1
    47   25   26 1
    48   25   27 1
    49   27   48 1
    50   27   49 1
    51   28   29 1
    52   28   50 1
    53   28   51 1
    54   29   33 1
    55   29   30 1
    56   30   31 2
    57   30   52 1
    58   31   32 1
    59   32   33 2
    60   32   53 1
@<TRIPOS>MOLECULE
CHEMBL222784
   59    64     0     0     0
SMALL
USER_CHARGES

@<TRIPOS>ATOM
      1 C1         -0.0167    1.3779    0.0096 C.ar      1 <0>        -0.1243
      2 C2          1.1834    2.0708    0.0019 C.ar      1 <0>        -0.0986
      3 C3          2.3677    1.3415   -0.0133 C.ar      1 <0>         0.0649
      4 C4          2.3054   -0.0445   -0.0202 C.ar      1 <0>         0.0166
      5 N1          1.1428   -0.6656   -0.0129 N.ar      1 <0>        -0.4491
      6 C5          0.0021   -0.0041    0.0020 C.ar      1 <0>         0.0743
      7 O1          3.5688    1.9776   -0.0218 O.3       1 <0>        -0.2959
      8 C6          4.7379    1.1560   -0.0374 C.3       1 <0>         0.0452
      9 C7          5.9845    2.0430   -0.0451 C.3       1 <0>        -0.1098
     10 H1          5.9327    2.7390   -0.8823 H         1 <0>         0.1354
     11 C8          6.0662    2.8259    1.2698 C.3       1 <0>        -0.1284
     12 C9          6.1885    1.8300    2.4239 C.3       1 <0>        -0.1434
     13 C10         7.4178    0.9390    2.2154 C.3       1 <0>         0.0153
     14 H2          8.3183    1.5531    2.2169 H         1 <0>         0.1485
     15 C11         7.4758   -0.0611    3.3781 C.3       1 <0>         0.1082
     16 N2          8.5476   -1.0330    3.1255 N.pl3     1 <0>        -0.5996
     17 C12         8.5672   -1.7043    1.8157 C.3       1 <0>         0.0905
     18 C13         8.4943   -0.6266    0.7317 C.3       1 <0>        -0.0217
     19 N3          7.3123    0.2253    0.9385 N.4       1 <0>        -0.3841
     20 C14         7.2326    1.1715   -0.1798 C.3       1 <0>         0.0001
     21 C15         9.4962   -1.3049    4.0755 C.2       1 <0>         0.6639
     22 N4         10.4848   -2.2171    3.7956 N.pl3     1 <0>        -0.7074
     23 C16        11.6817   -2.1480    4.5081 C.2       1 <0>         0.6314
     24 N5         11.5418   -1.6459    5.7917 N.pl3     1 <0>        -0.3830
     25 C17        10.4251   -0.9125    6.1360 C.2       1 <0>         0.4992
     26 N6          9.4431   -0.6795    5.2398 N.2       1 <0>        -0.5247
     27 N7         10.5610   -0.5585    7.3881 N.2       1 <0>        -0.4758
     28 C18        11.7207   -1.0407    7.8707 C.2       1 <0>         0.3323
     29 N8         12.3446   -1.7136    6.9182 N.2       1 <0>        -0.2427
     30 C19        12.2192   -0.8484    9.2484 C.2       1 <0>         0.0315
     31 C20        11.5858   -0.1642   10.2379 C.2       1 <0>        -0.1241
     32 C21        12.4144   -0.2352   11.3752 C.2       1 <0>        -0.2197
     33 C22        13.5014   -0.9518   11.0276 C.2       1 <0>        -0.0007
     34 O2         13.3774   -1.3255    9.7438 O.3       1 <0>        -0.1587
     35 N9         12.8267   -2.5221    4.0122 N.2       1 <0>        -0.6517
     36 H3         -0.9555    1.9114    0.0259 H         1 <0>         0.1504
     37 H4          1.1987    3.1507    0.0072 H         1 <0>         0.1470
     38 H5          3.2189   -0.6205   -0.0320 H         1 <0>         0.1485
     39 H6         -0.9300   -0.5495    0.0080 H         1 <0>         0.1656
     40 H7          4.7484    0.5222    0.8493 H         1 <0>         0.0573
     41 H8          4.7310    0.5312   -0.9305 H         1 <0>         0.0777
     42 H9          6.9401    3.4771    1.2542 H         1 <0>         0.0904
     43 H10         5.1635    3.4237    1.3963 H         1 <0>         0.1073
     44 H11         6.2909    2.3744    3.3627 H         1 <0>         0.1237
     45 H12         5.2935    1.2090    2.4627 H         1 <0>         0.0919
     46 H13         7.6788    0.4717    4.3071 H         1 <0>         0.1545
     47 H14         6.5222   -0.5831    3.4575 H         1 <0>         0.1037
     48 H15         9.4900   -2.2742    1.7074 H         1 <0>         0.1248
     49 H16         7.7092   -2.3712    1.7305 H         1 <0>         0.1136
     50 H17         9.3914   -0.0090    0.7747 H         1 <0>         0.1394
     51 H18         8.4306   -1.1018   -0.2472 H         1 <0>         0.1537
     52 H19         7.1903    0.6235   -1.1211 H         1 <0>         0.1402
     53 H20         8.1186    1.8064   -0.1739 H         1 <0>         0.1416
     54 H21        10.6320    0.3374   10.1659 H         1 <0>         0.1629
     55 H22        12.2161    0.2023   12.3426 H         1 <0>         0.1612
     56 H23        14.3322   -1.1899   11.6753 H         1 <0>         0.2154
     57 H24        12.8734   -2.8681    3.1072 H         1 <0>         0.3683
     58 H25        10.3527   -2.8963    3.1158 H         1 <0>         0.4280
     59 H26         6.4841   -0.3510    0.9422 H         1 <0>         0.4189
@<TRIPOS>BOND
     1    1    6 ar
     2    1    2 ar
     3    1   36 1
     4    2    3 ar
     5    2   37 1
     6    3    4 ar
     7    3    7 1
     8    4    5 ar
     9    4   38 1
    10    5    6 ar
    11    6   39 1
    12    7    8 1
    13    8    9 1
    14    8   40 1
    15    8   41 1
    16    9   10 1
    17    9   20 1
    18    9   11 1
    19   11   12 1
    20   11   42 1
    21   11   43 1
    22   12   13 1
    23   12   44 1
    24   12   45 1
    25   13   14 1
    26   13   19 1
    27   13   15 1
    28   15   16 1
    29   15   46 1
    30   15   47 1
    31   16   17 1
    32   16   21 1
    33   17   18 1
    34   17   48 1
    35   17   49 1
    36   18   19 1
    37   18   50 1
    38   18   51 1
    39   19   20 1
    40   19   59 1
    41   20   52 1
    42   20   53 1
    43   21   26 2
    44   21   22 1
    45   22   23 1
    46   22   58 1
    47   23   24 1
    48   23   35 2
    49   24   29 1
    50   24   25 1
    51   25   26 1
    52   25   27 2
    53   27   28 1
    54   28   29 2
    55   28   30 1
    56   30   34 1
    57   30   31 2
    58   31   32 1
    59   31   54 1
    60   32   33 2
    61   32   55 1
    62   33   34 1
    63   33   56 1
    64   35   57 1
@<TRIPOS>MOLECULE
CHEMBL411034
   39    42     0     0     0
SMALL
USER_CHARGES

@<TRIPOS>ATOM
      1 C1         -0.0167    1.3780    0.0096 C.ar      1 <0>        -0.1153
      2 C2          1.1709    2.0861    0.0021 C.ar      1 <0>        -0.0934
      3 C3          2.3773    1.4123   -0.0135 C.ar      1 <0>        -0.1113
      4 C4          2.3967    0.0287   -0.0210 C.ar      1 <0>        -0.0202
      5 C5          1.2083   -0.6792   -0.0130 C.ar      1 <0>        -0.1096
      6 C6          0.0021   -0.0041    0.0020 C.ar      1 <0>        -0.0836
      7 C7          1.2286   -2.1860   -0.0218 C.3       1 <0>         0.1746
      8 N1          1.4887   -2.6787    1.3331 N.am      1 <0>        -0.7181
      9 C8          1.5517   -4.0045    1.5675 C.2       1 <0>         0.7108
     10 O1          1.3928   -4.7910    0.6551 O.2       1 <0>        -0.5074
     11 N2          1.7910   -4.4578    2.8140 N.am      1 <0>        -0.4700
     12 C9          1.9830   -3.6925    3.9348 C.2       1 <0>         0.2535
     13 N3          2.1880   -4.4594    4.9646 N.2       1 <0>        -0.4177
     14 C10         2.1426   -5.7581    4.5821 C.ar      1 <0>        -0.0932
     15 C11         1.8824   -5.7777    3.2008 C.ar      1 <0>         0.3668
     16 N4          1.7832   -6.9439    2.5768 N.ar      1 <0>        -0.5471
     17 C12         1.9238   -8.0810    3.2416 C.ar      1 <0>         0.6027
     18 N5          2.1664   -8.1151    4.5434 N.ar      1 <0>        -0.5435
     19 C13         2.2902   -6.9904    5.2500 C.ar      1 <0>         0.3701
     20 C14         2.5588   -7.0356    6.6975 C.2       1 <0>         0.0051
     21 C15         2.0993   -7.9780    7.5673 C.2       1 <0>        -0.1332
     22 C16         2.5959   -7.6330    8.8378 C.2       1 <0>        -0.2233
     23 C17         3.3267   -6.5094    8.6855 C.2       1 <0>        -0.0070
     24 O2          3.3068   -6.1550    7.3915 O.3       1 <0>        -0.1488
     25 N6          1.8127   -9.2768    2.5512 N.pl3     1 <0>        -0.8078
     26 Cl1         3.9119   -0.8184   -0.0411 Cl        1 <0>        -0.0578
     27 H1         -0.9592    1.9049    0.0259 H         1 <0>         0.1343
     28 H2          1.1556    3.1659    0.0080 H         1 <0>         0.1362
     29 H3          3.3048    1.9655   -0.0201 H         1 <0>         0.1378
     30 H4         -0.9258   -0.5566    0.0079 H         1 <0>         0.1366
     31 H5          0.2643   -2.5603   -0.3656 H         1 <0>         0.0892
     32 H6          2.0139   -2.5349   -0.6923 H         1 <0>         0.0900
     33 H7          1.6155   -2.0509    2.0615 H         1 <0>         0.4032
     34 H8          1.9668   -2.6129    3.9589 H         1 <0>         0.2307
     35 H9          1.4744   -8.8258    7.3281 H         1 <0>         0.1575
     36 H10         2.4240   -8.1668    9.7608 H         1 <0>         0.1565
     37 H11         3.8452   -5.9842    9.4740 H         1 <0>         0.2112
     38 H12         1.6349   -9.2716    1.5976 H         1 <0>         0.4205
     39 H13         1.9126  -10.1194    3.0213 H         1 <0>         0.4206
@<TRIPOS>BOND
     1    1    6 ar
     2    1    2 ar
     3    1   27 1
     4    2    3 ar
     5    2   28 1
     6    3    4 ar
     7    3   29 1
     8    4    5 ar
     9    4   26 1
    10    5    6 ar
    11    5    7 1
    12    6   30 1
    13    7    8 1
    14    7   31 1
    15    7   32 1
    16    8    9 am
    17    8   33 1
    18    9   10 2
    19    9   11 am
    20   11   15 1
    21   11   12 1
    22   12   13 2
    23   12   34 1
    24   13   14 1
    25   14   19 ar
    26   14   15 ar
    27   15   16 ar
    28   16   17 ar
    29   17   18 ar
    30   17   25 1
    31   18   19 ar
    32   19   20 1
    33   20   24 1
    34   20   21 2
    35   21   22 1
    36   21   35 1
    37   22   23 2
    38   22   36 1
    39   23   24 1
    40   23   37 1
    41   25   38 1
    42   25   39 1
@<TRIPOS>MOLECULE
CHEMBL323621
   48    51     0     0     0
SMALL
USER_CHARGES

@<TRIPOS>ATOM
      1 C1          2.4790   -1.8832   -0.6342 C.3       1 <0>        -0.1701
      2 C2          2.1794   -0.5220   -1.2652 C.3       1 <0>         0.1087
      3 N1          0.7324   -0.2929   -1.2679 N.am      1 <0>        -0.6025
      4 C3          0.0789    0.2775   -0.0873 C.3       1 <0>         0.1112
      5 C4          0.0625    1.8032   -0.2007 C.3       1 <0>        -0.0874
      6 C5         -0.6098    2.3900    1.0137 C.ar      1 <0>         0.1286
      7 C6          0.0532    3.3378    1.7705 C.ar      1 <0>        -0.1678
      8 C7         -0.5741    3.8713    2.8857 C.ar      1 <0>        -0.0718
      9 C8         -1.8506    3.4295    3.1994 C.ar      1 <0>        -0.1750
     10 C9         -2.4506    2.4790    2.3958 C.ar      1 <0>         0.1049
     11 N2         -1.8258    1.9973    1.3390 N.ar      1 <0>        -0.4787
     12 C10         0.0025   -0.6069   -2.3565 C.2       1 <0>         0.5682
     13 O1          0.5277   -1.1644   -3.3003 O.2       1 <0>        -0.5130
     14 C11        -1.4373   -0.2733   -2.4026 C.2       1 <0>         0.0034
     15 C12        -1.8838    0.8631   -3.1096 C.2       1 <0>        -0.2348
     16 C13        -3.2102    1.1623   -3.1472 C.2       1 <0>         0.4618
     17 N3         -4.1212    0.3746   -2.5072 N.pl3     1 <0>        -0.3139
     18 C14        -3.7252   -0.7351   -1.8119 C.2       1 <0>         0.3409
     19 C15        -2.3645   -1.0773   -1.7561 C.2       1 <0>        -0.1384
     20 N4         -4.8138   -1.2991   -1.3000 N.2       1 <0>        -0.5208
     21 C16        -5.8897   -0.5898   -1.6434 C.2       1 <0>         0.3432
     22 N5         -5.5168    0.4424   -2.3812 N.2       1 <0>        -0.3246
     23 C17        -7.2809   -0.9076   -1.2594 C.2       1 <0>         0.0708
     24 C18        -7.6771   -1.9612   -0.4972 C.2       1 <0>        -0.1295
     25 C19        -9.0788   -1.8763   -0.3842 C.2       1 <0>        -0.1557
     26 C20        -9.4655   -0.7853   -1.0766 C.2       1 <0>        -0.0108
     27 O2         -8.3760   -0.1999   -1.5993 O.3       1 <0>        -0.1445
     28 Br1       -11.2453   -0.1774   -1.2729 Br        1 <0>         0.0648
     29 N6         -3.6404    2.2797   -3.8429 N.pl3     1 <0>        -0.8440
     30 H1          2.1068   -1.8988    0.3901 H         1 <0>         0.0571
     31 H2          1.9882   -2.6670   -1.2111 H         1 <0>         0.0617
     32 H3          3.5556   -2.0537   -0.6322 H         1 <0>         0.0691
     33 H4          2.6703    0.2618   -0.6883 H         1 <0>         0.0801
     34 H5          2.5516   -0.5065   -2.2895 H         1 <0>         0.0894
     35 H6         -0.9442   -0.0931   -0.0237 H         1 <0>         0.0969
     36 H7          0.6274   -0.0144    0.8082 H         1 <0>         0.0853
     37 H8          1.0855    2.1739   -0.2643 H         1 <0>         0.0850
     38 H9         -0.4861    2.0951   -1.0963 H         1 <0>         0.0870
     39 H10         1.0475    3.6584    1.4967 H         1 <0>         0.1347
     40 H11        -0.0802    4.6130    3.4959 H         1 <0>         0.1353
     41 H12        -2.3690    3.8232    4.0612 H         1 <0>         0.1354
     42 H13        -3.4446    2.1298    2.6333 H         1 <0>         0.1548
     43 H14        -1.1726    1.4953   -3.6204 H         1 <0>         0.1615
     44 H15        -2.0433   -1.9540   -1.2133 H         1 <0>         0.1613
     45 H16        -7.0403   -2.7174   -0.0625 H         1 <0>         0.1733
     46 H17        -9.7219   -2.5562    0.1548 H         1 <0>         0.1708
     47 H18        -2.9971    2.8439   -4.2998 H         1 <0>         0.4225
     48 H19        -4.5850    2.4982   -3.8733 H         1 <0>         0.4155
@<TRIPOS>BOND
     1    1    2 1
     2    1   30 1
     3    1   31 1
     4    1   32 1
     5    2    3 1
     6    2   33 1
     7    2   34 1
     8    3    4 1
     9    3   12 am
    10    4    5 1
    11    4   35 1
    12    4   36 1
    13    5    6 1
    14    5   37 1
    15    5   38 1
    16    6   11 ar
    17    6    7 ar
    18    7    8 ar
    19    7   39 1
    20    8    9 ar
    21    8   40 1
    22    9   10 ar
    23    9   41 1
    24   10   11 ar
    25   10   42 1
    26   12   13 2
    27   12   14 1
    28   14   19 2
    29   14   15 1
    30   15   16 2
    31   15   43 1
    32   16   17 1
    33   16   29 1
    34   17   22 1
    35   17   18 1
    36   18   19 1
    37   18   20 2
    38   19   44 1
    39   20   21 1
    40   21   22 2
    41   21   23 1
    42   23   27 1
    43   23   24 2
    44   24   25 1
    45   24   45 1
    46   25   26 2
    47   25   46 1
    48   26   27 1
    49   26   28 1
    50   29   47 1
    51   29   48 1
@<TRIPOS>MOLECULE
CHEMBL317580
   53    58     0     0     0
SMALL
USER_CHARGES

@<TRIPOS>ATOM
      1 C1          0.0335    1.4637    0.0599 C.ar      1 <0>        -0.1111
      2 C2          0.0197    0.0839   -0.0224 C.ar      1 <0>        -0.1138
      3 C3          1.2098   -0.6186   -0.0541 C.ar      1 <0>        -0.1085
      4 C4          2.4137    0.0588   -0.0040 C.ar      1 <0>        -0.0903
      5 C5          2.4276    1.4387    0.0773 C.ar      1 <0>        -0.1050
      6 C6          1.2375    2.1411    0.1104 C.ar      1 <0>        -0.1145
      7 C7          3.7112   -0.7071   -0.0376 C.3       1 <0>        -0.0149
      8 C8          3.8699   -1.4828    1.2447 C.ar      1 <0>        -0.0754
      9 C9          3.0119   -2.5282    1.5308 C.ar      1 <0>        -0.0799
     10 C10         3.1575   -3.2398    2.7070 C.ar      1 <0>        -0.1206
     11 C11         4.1614   -2.9062    3.5968 C.ar      1 <0>        -0.1117
     12 C12         5.0200   -1.8613    3.3103 C.ar      1 <0>        -0.1222
     13 C13         4.8770   -1.1526    2.1321 C.ar      1 <0>        -0.1048
     14 C14         3.7012   -1.6613   -1.2040 C.2       1 <0>         0.5200
     15 O1          3.8120   -2.8536   -1.0129 O.2       1 <0>        -0.4326
     16 N1          3.5691   -1.1895   -2.4595 N.am      1 <0>        -0.6418
     17 C15         3.5599   -2.0642   -3.5287 C.2       1 <0>         0.6242
     18 N2          3.6759   -3.3433   -3.2905 N.2       1 <0>        -0.4665
     19 C16         3.6750   -4.2623   -4.2861 C.ar      1 <0>         0.1655
     20 C17         3.7994   -5.6282   -4.0179 C.ar      1 <0>        -0.0800
     21 C18         3.7941   -6.5271   -5.0466 C.ar      1 <0>        -0.0640
     22 C19         3.6664   -6.1043   -6.3643 C.ar      1 <0>        -0.0465
     23 C20         3.5419   -4.7634   -6.6604 C.ar      1 <0>        -0.0387
     24 C21         3.5449   -3.8304   -5.6258 C.ar      1 <0>        -0.0938
     25 C22         3.4162   -2.3899   -5.8747 C.2       1 <0>         0.3563
     26 N3          3.4243   -1.5540   -4.7896 N.pl3     1 <0>        -0.3607
     27 N4          3.2815   -0.2555   -5.2970 N.2       1 <0>        -0.2875
     28 C23         3.1917   -0.3615   -6.6096 C.2       1 <0>         0.3466
     29 N5          3.2821   -1.6521   -6.9546 N.2       1 <0>        -0.4982
     30 C24         3.0298    0.7667   -7.5504 C.2       1 <0>         0.0392
     31 C25         2.9545    2.0817   -7.2137 C.2       1 <0>        -0.1337
     32 C26         2.8045    2.8006   -8.4162 C.2       1 <0>        -0.2193
     33 C27         2.7956    1.8983   -9.4171 C.2       1 <0>        -0.0017
     34 O2          2.9370    0.6711   -8.8908 O.3       1 <0>        -0.1525
     35 Cl1         3.6640   -7.2735   -7.6476 Cl        1 <0>        -0.0497
     36 H1         -0.8963    2.0129    0.0801 H         1 <0>         0.1251
     37 H2         -0.9210   -0.4453   -0.0615 H         1 <0>         0.1250
     38 H3          1.1989   -1.6967   -0.1176 H         1 <0>         0.1217
     39 H4          3.3682    1.9678    0.1171 H         1 <0>         0.1274
     40 H5          1.2483    3.2191    0.1743 H         1 <0>         0.1272
     41 H6          4.5420   -0.0099   -0.1456 H         1 <0>         0.1201
     42 H7          2.2276   -2.7889    0.8356 H         1 <0>         0.1205
     43 H8          2.4868   -4.0561    2.9308 H         1 <0>         0.1231
     44 H9          4.2747   -3.4616    4.5161 H         1 <0>         0.1227
     45 H10         5.8040   -1.6005    4.0057 H         1 <0>         0.1241
     46 H11         5.5501   -0.3386    1.9065 H         1 <0>         0.1225
     47 H12         3.4804   -0.2357   -2.6124 H         1 <0>         0.4302
     48 H13         3.8999   -5.9726   -2.9992 H         1 <0>         0.1573
     49 H14         3.8910   -7.5813   -4.8328 H         1 <0>         0.1508
     50 H15         3.4432   -4.4390   -7.6858 H         1 <0>         0.1542
     51 H16         3.0005    2.4953   -6.2171 H         1 <0>         0.1606
     52 H17         2.7134    3.8720   -8.5167 H         1 <0>         0.1604
     53 H18         2.6952    2.1249  -10.4682 H         1 <0>         0.2150
@<TRIPOS>BOND
     1    1    6 ar
     2    1    2 ar
     3    1   36 1
     4    2    3 ar
     5    2   37 1
     6    3    4 ar
     7    3   38 1
     8    4    5 ar
     9    4    7 1
    10    5    6 ar
    11    5   39 1
    12    6   40 1
    13    7    8 1
    14    7   14 1
    15    7   41 1
    16    8   13 ar
    17    8    9 ar
    18    9   10 ar
    19    9   42 1
    20   10   11 ar
    21   10   43 1
    22   11   12 ar
    23   11   44 1
    24   12   13 ar
    25   12   45 1
    26   13   46 1
    27   14   15 2
    28   14   16 am
    29   16   17 1
    30   16   47 1
    31   17   26 1
    32   17   18 2
    33   18   19 1
    34   19   24 ar
    35   19   20 ar
    36   20   21 ar
    37   20   48 1
    38   21   22 ar
    39   21   49 1
    40   22   23 ar
    41   22   35 1
    42   23   24 ar
    43   23   50 1
    44   24   25 1
    45   25   29 2
    46   25   26 1
    47   26   27 1
    48   27   28 2
    49   28   29 1
    50   28   30 1
    51   30   34 1
    52   30   31 2
    53   31   32 1
    54   31   51 1
    55   32   33 2
    56   32   52 1
    57   33   34 1
    58   33   53 1
@<TRIPOS>MOLECULE
CHEMBL576185
   55    59     0     0     0
SMALL
USER_CHARGES

@<TRIPOS>ATOM
      1 C1         -0.0187    1.5258    0.0104 C.3       1 <0>        -0.1487
      2 C2          0.0021   -0.0041    0.0020 C.3       1 <0>        -0.0926
      3 C3          0.7421   -0.5109    1.2415 C.3       1 <0>        -0.1546
      4 C4         -1.4333   -0.5336    0.0129 C.3       1 <0>        -0.1304
      5 C5         -1.4157   -2.0577   -0.1212 C.3       1 <0>         0.1246
      6 N1         -2.7901   -2.5647   -0.1108 N.pl3     1 <0>        -0.3345
      7 C6         -3.3331   -3.3476   -1.0594 C.2       1 <0>         0.1575
      8 C7         -4.6284   -3.6099   -0.6953 C.2       1 <0>        -0.2674
      9 C8         -4.8595   -2.9161    0.5818 C.2       1 <0>         0.3006
     10 N2         -3.7343   -2.3123    0.8913 N.2       1 <0>        -0.2470
     11 N3         -6.0842   -3.0200    1.1619 N.2       1 <0>        -0.4468
     12 C9         -7.0469   -3.7117    0.6195 C.2       1 <0>         0.6508
     13 N4         -6.9246   -4.3893   -0.5636 N.pl3     1 <0>        -0.3753
     14 C10        -5.7467   -4.3744   -1.2616 C.2       1 <0>         0.4112
     15 N5         -5.9074   -5.0974   -2.3471 N.2       1 <0>        -0.5122
     16 C11        -7.1549   -5.5855   -2.3824 C.2       1 <0>         0.3453
     17 N6         -7.8096   -5.1792   -1.3124 N.2       1 <0>        -0.2920
     18 C12        -7.7084   -6.4444   -3.4500 C.2       1 <0>         0.0429
     19 C13        -8.9731   -6.9408   -3.4993 C.2       1 <0>        -0.1367
     20 C14        -9.0653   -7.6999   -4.6828 C.2       1 <0>        -0.2191
     21 C15        -7.8649   -7.6300   -5.2911 C.2       1 <0>        -0.0050
     22 O1         -7.0492   -6.8667   -4.5462 O.3       1 <0>        -0.1533
     23 N7         -8.2609   -3.7642    1.2771 N.am      1 <0>        -0.6459
     24 C16        -8.4234   -3.1114    2.4450 C.2       1 <0>         0.5070
     25 O2         -7.5042   -2.4780    2.9186 O.2       1 <0>        -0.4319
     26 C17        -9.7475   -3.1687    3.1622 C.3       1 <0>        -0.0931
     27 C18        -9.6660   -2.3620    4.4325 C.ar      1 <0>        -0.0643
     28 C19        -9.2589   -2.9642    5.6087 C.ar      1 <0>        -0.0965
     29 C20        -9.1839   -2.2249    6.7742 C.ar      1 <0>        -0.1044
     30 C21        -9.5164   -0.8832    6.7646 C.ar      1 <0>        -0.1051
     31 C22        -9.9237   -0.2802    5.5882 C.ar      1 <0>        -0.0329
     32 C23        -9.9928   -1.0194    4.4204 C.ar      1 <0>        -0.0928
     33 Cl1       -10.3414    1.4047    5.5754 Cl        1 <0>        -0.0679
     34 H1          1.0039    1.9031    0.0027 H         1 <0>         0.0588
     35 H2         -0.5459    1.8868   -0.8726 H         1 <0>         0.0555
     36 H3         -0.5289    1.8773    0.9072 H         1 <0>         0.0574
     37 H4          0.5123   -0.3556   -0.8948 H         1 <0>         0.0740
     38 H5          0.2319   -0.1594    2.1383 H         1 <0>         0.0591
     39 H6          0.7568   -1.6008    1.2356 H         1 <0>         0.0555
     40 H7          1.7647   -0.1336    1.2338 H         1 <0>         0.0587
     41 H8         -1.9156   -0.2570    0.9504 H         1 <0>         0.0843
     42 H9         -1.9862   -0.1019   -0.8214 H         1 <0>         0.0718
     43 H10        -0.9334   -2.3344   -1.0587 H         1 <0>         0.1079
     44 H11        -0.8628   -2.4894    0.7131 H         1 <0>         0.1003
     45 H12        -2.8374   -3.7054   -1.9497 H         1 <0>         0.2002
     46 H13        -9.7557   -6.7840   -2.7718 H         1 <0>         0.1607
     47 H14        -9.9337   -8.2362   -5.0357 H         1 <0>         0.1595
     48 H15        -7.6034   -8.1059   -6.2247 H         1 <0>         0.2139
     49 H16        -8.9962   -4.2709    0.8982 H         1 <0>         0.4307
     50 H17       -10.5266   -2.7577    2.5202 H         1 <0>         0.1154
     51 H18        -9.9851   -4.2046    3.4043 H         1 <0>         0.1168
     52 H19        -8.9998   -4.0126    5.6169 H         1 <0>         0.1288
     53 H20        -8.8659   -2.6958    7.6927 H         1 <0>         0.1345
     54 H21        -9.4584   -0.3059    7.6755 H         1 <0>         0.1344
     55 H22       -10.3065   -0.5481    3.5007 H         1 <0>         0.1324
@<TRIPOS>BOND
     1    1    2 1
     2    1   34 1
     3    1   35 1
     4    1   36 1
     5    2    3 1
     6    2    4 1
     7    2   37 1
     8    3   38 1
     9    3   39 1
    10    3   40 1
    11    4    5 1
    12    4   41 1
    13    4   42 1
    14    5    6 1
    15    5   43 1
    16    5   44 1
    17    6   10 1
    18    6    7 1
    19    7    8 2
    20    7   45 1
    21    8   14 1
    22    8    9 1
    23    9   10 2
    24    9   11 1
    25   11   12 2
    26   12   13 1
    27   12   23 1
    28   13   17 1
    29   13   14 1
    30   14   15 2
    31   15   16 1
    32   16   17 2
    33   16   18 1
    34   18   22 1
    35   18   19 2
    36   19   20 1
    37   19   46 1
    38   20   21 2
    39   20   47 1
    40   21   22 1
    41   21   48 1
    42   23   24 am
    43   23   49 1
    44   24   25 2
    45   24   26 1
    46   26   27 1
    47   26   50 1
    48   26   51 1
    49   27   32 ar
    50   27   28 ar
    51   28   29 ar
    52   28   52 1
    53   29   30 ar
    54   29   53 1
    55   30   31 ar
    56   30   54 1
    57   31   32 ar
    58   31   33 1
    59   32   55 1
@<TRIPOS>MOLECULE
CHEMBL607376
   60    63     0     0     0
SMALL
USER_CHARGES

@<TRIPOS>ATOM
      1 C1          0.3391    1.7690   -0.1846 C.3       1 <0>        -0.1668
      2 C2          0.2747    0.2420   -0.1132 C.3       1 <0>         0.1122
      3 N1          0.9050   -0.3297   -1.3057 N.am      1 <0>        -0.7279
      4 C3          0.9652   -1.6672   -1.4605 C.2       1 <0>         0.5171
      5 O1          0.4977   -2.3975   -0.6126 O.2       1 <0>        -0.5280
      6 C4          1.6136   -2.2552   -2.6873 C.3       1 <0>        -0.1362
      7 H1          1.1012   -1.9062   -3.5837 H         1 <0>         0.1233
      8 C5          3.1028   -1.8562   -2.7406 C.3       1 <0>        -0.1194
      9 C6          3.8416   -3.0598   -2.1044 C.3       1 <0>         0.1419
     10 H2          3.7944   -3.0108   -1.0165 H         1 <0>         0.1304
     11 C7          3.0381   -4.2731   -2.6347 C.3       1 <0>         0.0847
     12 H3          3.3478   -4.5216   -3.6498 H         1 <0>         0.0908
     13 C8          1.5713   -3.7919   -2.6205 C.3       1 <0>         0.0710
     14 H4          1.0818   -4.1124   -1.7008 H         1 <0>         0.1108
     15 O2          0.8736   -4.3121   -3.7539 O.3       1 <0>        -0.3778
     16 C9         -0.5383   -4.4266   -3.5650 C.3       1 <0>         0.0303
     17 O3          3.2060   -5.3998   -1.7719 O.3       1 <0>        -0.3681
     18 C10         3.0537   -6.6609   -2.4264 C.3       1 <0>         0.0307
     19 N2          5.2329   -3.1146   -2.5598 N.pl3     1 <0>        -0.4583
     20 C11         5.6558   -3.2101   -3.8520 C.2       1 <0>         0.2510
     21 N3          6.9568   -3.2352   -3.8944 N.2       1 <0>        -0.4537
     22 C12         7.4512   -3.1576   -2.6369 C.ar      1 <0>        -0.1023
     23 C13         6.3508   -3.0731   -1.7638 C.ar      1 <0>         0.3130
     24 N4          6.5660   -2.9810   -0.4586 N.ar      1 <0>        -0.5316
     25 C14         7.8033   -2.9652    0.0223 C.ar      1 <0>         0.4940
     26 N5          8.8725   -3.0393   -0.7680 N.ar      1 <0>        -0.5711
     27 C15         8.7455   -3.1423   -2.0842 C.ar      1 <0>         0.5157
     28 N6          9.8624   -3.2170   -2.8981 N.pl3     1 <0>        -0.8136
     29 C16         7.9945   -2.8646    1.4379 C.1       1 <0>        -0.0762
     30 C17         8.1513   -2.7822    2.5985 C.1       1 <0>        -0.0613
     31 C18         8.3426   -2.6816    4.0141 C.ar      1 <0>         0.0432
     32 C19         7.2345   -2.6078    4.8663 C.ar      1 <0>        -0.1023
     33 C20         7.4163   -2.5123    6.2159 C.ar      1 <0>        -0.0671
     34 C21         8.7119   -2.4883    6.7479 C.ar      1 <0>        -0.1813
     35 C22         9.8203   -2.5622    5.8947 C.ar      1 <0>        -0.0599
     36 C23         9.6374   -2.6630    4.5457 C.ar      1 <0>        -0.1014
     37 C24         8.9081   -2.3851    8.2006 C.2       1 <0>         0.3805
     38 O4         10.0300   -2.3642    8.6610 O.2       1 <0>        -0.4556
     39 H5          1.3806    2.0868   -0.2328 H         1 <0>         0.0626
     40 H6         -0.1876    2.1136   -1.0745 H         1 <0>         0.0625
     41 H7         -0.1299    2.1943    0.7027 H         1 <0>         0.0768
     42 H8          0.8014   -0.1027    0.7768 H         1 <0>         0.0703
     43 H9         -0.7668   -0.0759   -0.0649 H         1 <0>         0.0695
     44 H10         1.2789    0.2544   -1.9839 H         1 <0>         0.4018
     45 H11         3.4230   -1.7144   -3.7728 H         1 <0>         0.0979
     46 H12         3.2763   -0.9511   -2.1586 H         1 <0>         0.0914
     47 H13        -0.9694   -3.4337   -3.4375 H         1 <0>         0.0420
     48 H14        -0.9836   -4.9070   -4.4362 H         1 <0>         0.0903
     49 H15        -0.7386   -5.0265   -2.6773 H         1 <0>         0.0481
     50 H16         3.2792   -7.4640   -1.7248 H         1 <0>         0.0897
     51 H17         2.0280   -6.7650   -2.7803 H         1 <0>         0.0497
     52 H18         3.7376   -6.7157   -3.2734 H         1 <0>         0.0443
     53 H19         5.0069   -3.2581   -4.7141 H         1 <0>         0.2230
     54 H20         9.7579   -3.2807   -3.8604 H         1 <0>         0.4214
     55 H21        10.7497   -3.2056   -2.5063 H         1 <0>         0.4125
     56 H22         6.2357   -2.6259    4.4561 H         1 <0>         0.1378
     57 H23         6.5614   -2.4550    6.8733 H         1 <0>         0.1409
     58 H24        10.8194   -2.5437    6.3044 H         1 <0>         0.1403
     59 H25        10.4919   -2.7241    3.8880 H         1 <0>         0.1371
     60 H26         8.0533   -2.3277    8.8582 H         1 <0>         0.1095
@<TRIPOS>BOND
     1    1    2 1
     2    1   39 1
     3    1   40 1
     4    1   41 1
     5    2    3 1
     6    2   42 1
     7    2   43 1
     8    3    4 am
     9    3   44 1
    10    4    5 2
    11    4    6 1
    12    6    7 1
    13    6   13 1
    14    6    8 1
    15    8    9 1
    16    8   45 1
    17    8   46 1
    18    9   10 1
    19    9   11 1
    20    9   19 1
    21   11   12 1
    22   11   13 1
    23   11   17 1
    24   13   14 1
    25   13   15 1
    26   15   16 1
    27   16   47 1
    28   16   48 1
    29   16   49 1
    30   17   18 1
    31   18   50 1
    32   18   51 1
    33   18   52 1
    34   19   23 1
    35   19   20 1
    36   20   21 2
    37   20   53 1
    38   21   22 1
    39   22   27 ar
    40   22   23 ar
    41   23   24 ar
    42   24   25 ar
    43   25   26 ar
    44   25   29 1
    45   26   27 ar
    46   27   28 1
    47   28   54 1
    48   28   55 1
    49   29   30 3
    50   30   31 1
    51   31   36 ar
    52   31   32 ar
    53   32   33 ar
    54   32   56 1
    55   33   34 ar
    56   33   57 1
    57   34   35 ar
    58   34   37 1
    59   35   36 ar
    60   35   58 1
    61   36   59 1
    62   37   38 2
    63   37   60 1
@<TRIPOS>MOLECULE
CHEMBL118164
   34    37     0     0     0
SMALL
USER_CHARGES

@<TRIPOS>ATOM
      1 C1         -0.0166    1.3732    0.0096 C.ar      1 <0>        -0.1071
      2 C2          1.1686    2.0910    0.0021 C.ar      1 <0>        -0.1001
      3 C3          2.3825    1.4329   -0.0130 C.ar      1 <0>        -0.1115
      4 C4          2.4203    0.0463   -0.0208 C.ar      1 <0>         0.0945
      5 C5          1.2241   -0.6864   -0.0134 C.ar      1 <0>         0.1165
      6 C6          0.0021   -0.0041    0.0020 C.ar      1 <0>        -0.0767
      7 N1          1.2382   -2.0466   -0.0218 N.2       1 <0>        -0.5206
      8 C7          2.3625   -2.7216   -0.0367 C.2       1 <0>         0.4920
      9 C8          3.6482   -2.0076   -0.0446 C.2       1 <0>         0.2439
     10 N2          3.6436   -0.6215   -0.0366 N.am      1 <0>        -0.4718
     11 C9          4.9196   -0.1952   -0.0473 C.2       1 <0>         0.6547
     12 O1          5.2890    0.9656   -0.0441 O.2       1 <0>        -0.5187
     13 N3          5.7169   -1.2835   -0.0618 N.am      1 <0>        -0.3652
     14 N4          4.8893   -2.4153   -0.0593 N.2       1 <0>        -0.2318
     15 C10         7.1183   -1.2829   -0.0759 C.ar      1 <0>         0.1055
     16 C11         7.8122   -0.0798   -0.0700 C.ar      1 <0>        -0.0825
     17 C12         9.1924   -0.0790   -0.0839 C.ar      1 <0>        -0.1735
     18 C13         9.8875   -1.2816   -0.1037 C.ar      1 <0>         0.2134
     19 C14         9.1933   -2.4849   -0.1096 C.ar      1 <0>        -0.1777
     20 C15         7.8131   -2.4854   -0.0900 C.ar      1 <0>        -0.0674
     21 N5         11.2856   -1.2809   -0.1182 N.pl3     1 <0>        -0.8746
     22 N6          2.3392   -4.1021   -0.0444 N.pl3     1 <0>        -0.8058
     23 H1         -0.9610    1.8969    0.0260 H         1 <0>         0.1379
     24 H2          1.1429    3.1706    0.0078 H         1 <0>         0.1371
     25 H3          3.3028    1.9980   -0.0191 H         1 <0>         0.1466
     26 H4         -0.9256   -0.5571    0.0076 H         1 <0>         0.1450
     27 H5          7.2718    0.8552   -0.0549 H         1 <0>         0.1538
     28 H6          9.7320    0.8566   -0.0797 H         1 <0>         0.1319
     29 H7          9.7335   -3.4199   -0.1251 H         1 <0>         0.1316
     30 H8          7.2735   -3.4209   -0.0898 H         1 <0>         0.1372
     31 H9         11.7703   -0.4407   -0.1145 H         1 <0>         0.4005
     32 H10        11.7709   -2.1207   -0.1321 H         1 <0>         0.4002
     33 H11         1.4911   -4.5728   -0.0389 H         1 <0>         0.4222
     34 H12         3.1709   -4.6011   -0.0554 H         1 <0>         0.4206
@<TRIPOS>BOND
     1    1    6 ar
     2    1    2 ar
     3    1   23 1
     4    2    3 ar
     5    2   24 1
     6    3    4 ar
     7    3   25 1
     8    4   10 1
     9    4    5 ar
    10    5    6 ar
    11    5    7 1
    12    6   26 1
    13    7    8 2
    14    8    9 1
    15    8   22 1
    16    9   14 2
    17    9   10 1
    18   10   11 am
    19   11   12 2
    20   11   13 am
    21   13   14 1
    22   13   15 1
    23   15   20 ar
    24   15   16 ar
    25   16   17 ar
    26   16   27 1
    27   17   18 ar
    28   17   28 1
    29   18   19 ar
    30   18   21 1
    31   19   20 ar
    32   19   29 1
    33   20   30 1
    34   21   31 1
    35   21   32 1
    36   22   33 1
    37   22   34 1
@<TRIPOS>MOLECULE
CHEMBL340868
   64    67     0     0     0
SMALL
USER_CHARGES

@<TRIPOS>ATOM
      1 C1          0.4798    0.2080    1.4691 C.3       1 <0>        -0.1528
      2 C2          0.0646   -1.1850    1.9465 C.3       1 <0>         0.0624
      3 O1         -1.2595   -1.4697    1.4906 O.3       1 <0>        -0.3484
      4 C3         -1.7787   -2.6665    1.8283 C.2       1 <0>         0.5109
      5 O2         -1.1250   -3.4470    2.4916 O.2       1 <0>        -0.5020
      6 C4         -3.1398   -3.0289    1.3928 C.ar      1 <0>        -0.1587
      7 C5         -3.9428   -2.0851    0.7467 C.ar      1 <0>        -0.0109
      8 C6         -5.2152   -2.4234    0.3380 C.ar      1 <0>        -0.1338
      9 C7         -5.6966   -3.7079    0.5691 C.ar      1 <0>         0.2101
     10 C8         -4.9000   -4.6506    1.2145 C.ar      1 <0>        -0.1742
     11 C9         -3.6277   -4.3193    1.6202 C.ar      1 <0>         0.0197
     12 C10        -2.7647   -5.3425    2.3124 C.3       1 <0>        -0.1257
     13 N1         -6.9768   -4.0601    0.1519 N.pl3     1 <0>        -0.6384
     14 C11        -7.6265   -3.2990   -0.7895 C.2       1 <0>         0.2898
     15 C12        -7.2234   -2.0312   -1.0620 C.2       1 <0>        -0.2534
     16 C13        -6.0669   -1.3928   -0.3512 C.3       1 <0>         0.0605
     17 C14        -5.2243   -0.6451   -1.3522 C.2       1 <0>        -0.1314
     18 C15        -5.0693    0.6666   -1.2399 C.2       1 <0>        -0.0920
     19 C16        -4.2428    1.3999   -2.2217 C.ar      1 <0>        -0.0465
     20 C17        -3.6290    0.7152   -3.2712 C.ar      1 <0>        -0.1140
     21 C18        -2.8588    1.4056   -4.1844 C.ar      1 <0>        -0.1183
     22 C19        -2.6940    2.7736   -4.0607 C.ar      1 <0>        -0.1225
     23 C20        -3.2994    3.4583   -3.0222 C.ar      1 <0>        -0.1190
     24 C21        -4.0776    2.7807   -2.1062 C.ar      1 <0>        -0.1094
     25 C22        -7.9125   -1.2930   -2.0421 C.2       1 <0>         0.5155
     26 O3         -8.7743   -1.8295   -2.7144 O.2       1 <0>        -0.5095
     27 O4         -7.6179    0.0104   -2.2370 O.3       1 <0>        -0.3389
     28 C23        -8.3566    0.6982   -3.2485 C.3       1 <0>         0.0654
     29 C24        -7.8871    2.1525   -3.3229 C.3       1 <0>        -0.1498
     30 C25        -8.7796   -3.8682   -1.5160 C.ar      1 <0>        -0.0610
     31 C26        -8.5940   -4.9281   -2.4062 C.ar      1 <0>        -0.0915
     32 C27        -9.6755   -5.4551   -3.0810 C.ar      1 <0>        -0.1213
     33 C28       -10.9420   -4.9360   -2.8775 C.ar      1 <0>        -0.1025
     34 C29       -11.1329   -3.8856   -1.9973 C.ar      1 <0>        -0.1188
     35 C30       -10.0613   -3.3527   -1.3115 C.ar      1 <0>        -0.0537
     36 H1          1.4898    0.4252    1.8168 H         1 <0>         0.0801
     37 H2          0.4556    0.2410    0.3799 H         1 <0>         0.0671
     38 H3         -0.2101    0.9503    1.8705 H         1 <0>         0.0672
     39 H4          0.7545   -1.9273    1.5451 H         1 <0>         0.0679
     40 H5          0.0888   -1.2180    3.0357 H         1 <0>         0.0683
     41 H6         -3.5660   -1.0890    0.5676 H         1 <0>         0.1463
     42 H7         -5.2805   -5.6454    1.3935 H         1 <0>         0.1389
     43 H8         -2.8359   -5.2076    3.3917 H         1 <0>         0.0820
     44 H9         -3.1052   -6.3437    2.0482 H         1 <0>         0.0642
     45 H10        -1.7286   -5.2164    1.9981 H         1 <0>         0.0952
     46 H11        -7.4103   -4.8432    0.5257 H         1 <0>         0.4223
     47 H12        -6.4469   -0.6898    0.3901 H         1 <0>         0.0923
     48 H13        -4.7467   -1.1780   -2.1611 H         1 <0>         0.1123
     49 H14        -5.5469    1.1995   -0.4309 H         1 <0>         0.1188
     50 H15        -3.7564   -0.3528   -3.3684 H         1 <0>         0.1205
     51 H16        -2.3832    0.8768   -4.9972 H         1 <0>         0.1201
     52 H17        -2.0898    3.3094   -4.7779 H         1 <0>         0.1196
     53 H18        -3.1663    4.5261   -2.9308 H         1 <0>         0.1212
     54 H19        -4.5540    3.3170   -1.2989 H         1 <0>         0.1224
     55 H20        -8.1926    0.2138   -4.2110 H         1 <0>         0.0616
     56 H21        -9.4186    0.6713   -3.0045 H         1 <0>         0.0616
     57 H22        -8.4506    2.6772   -4.0944 H         1 <0>         0.0743
     58 H23        -8.0512    2.6370   -2.3603 H         1 <0>         0.0641
     59 H24        -6.8251    2.1794   -3.5669 H         1 <0>         0.0669
     60 H25        -7.6061   -5.3339   -2.5662 H         1 <0>         0.1199
     61 H26        -9.5334   -6.2746   -3.7700 H         1 <0>         0.1246
     62 H27       -11.7852   -5.3525   -3.4085 H         1 <0>         0.1229
     63 H28       -12.1240   -3.4848   -1.8437 H         1 <0>         0.1241
     64 H29       -10.2125   -2.5360   -0.6211 H         1 <0>         0.1172
@<TRIPOS>BOND
     1    1    2 1
     2    1   36 1
     3    1   37 1
     4    1   38 1
     5    2    3 1
     6    2   39 1
     7    2   40 1
     8    3    4 1
     9    4    5 2
    10    4    6 1
    11    6   11 ar
    12    6    7 ar
    13    7    8 ar
    14    7   41 1
    15    8   16 1
    16    8    9 ar
    17    9   10 ar
    18    9   13 1
    19   10   11 ar
    20   10   42 1
    21   11   12 1
    22   12   43 1
    23   12   44 1
    24   12   45 1
    25   13   14 1
    26   13   46 1
    27   14   15 2
    28   14   30 1
    29   15   16 1
    30   15   25 1
    31   16   17 1
    32   16   47 1
    33   17   18 2
    34   17   48 1
    35   18   19 1
    36   18   49 1
    37   19   24 ar
    38   19   20 ar
    39   20   21 ar
    40   20   50 1
    41   21   22 ar
    42   21   51 1
    43   22   23 ar
    44   22   52 1
    45   23   24 ar
    46   23   53 1
    47   24   54 1
    48   25   26 2
    49   25   27 1
    50   27   28 1
    51   28   29 1
    52   28   55 1
    53   28   56 1
    54   29   57 1
    55   29   58 1
    56   29   59 1
    57   30   35 ar
    58   30   31 ar
    59   31   32 ar
    60   31   60 1
    61   32   33 ar
    62   32   61 1
    63   33   34 ar
    64   33   62 1
    65   34   35 ar
    66   34   63 1
    67   35   64 1
@<TRIPOS>MOLECULE
CHEMBL507754
   50    52     0     0     0
SMALL
USER_CHARGES

@<TRIPOS>ATOM
      1 C1         -0.0187    1.5258    0.0104 C.3       1 <0>        -0.1419
      2 C2          0.0021   -0.0041    0.0020 C.3       1 <0>        -0.1303
      3 C3          0.7182   -0.4975   -1.2568 C.3       1 <0>         0.1278
      4 N1          0.7381   -1.9623   -1.2648 N.am      1 <0>        -0.4933
      5 C4          1.7929   -2.6465   -0.6716 C.2       1 <0>         0.0145
      6 C5          1.7924   -4.0384   -0.6904 C.2       1 <0>        -0.0754
      7 C6          0.7152   -4.7094   -1.3144 C.2       1 <0>         0.5855
      8 O1          0.6855   -5.9268   -1.3471 O.2       1 <0>        -0.5444
      9 N2         -0.2787   -3.9897   -1.8723 N.am      1 <0>        -0.5506
     10 C7         -0.2681   -2.6463   -1.8420 C.2       1 <0>         0.6874
     11 O2         -1.1865   -2.0337   -2.3520 O.2       1 <0>        -0.5729
     12 C8         -1.3944   -4.6853   -2.5186 C.3       1 <0>         0.1180
     13 C9         -2.4980   -4.9441   -1.4910 C.3       1 <0>        -0.1372
     14 C10        -3.6631   -5.6705   -2.1660 C.3       1 <0>        -0.1441
     15 N3          2.9322   -4.4704   -0.0458 N.pl3     1 <0>        -0.5172
     16 H1          3.1901   -5.3958    0.0885 H         1 <0>         0.4099
     17 C11         3.6406   -3.3733    0.3729 C.2       1 <0>        -0.1091
     18 C12         2.9547   -2.2382   -0.0033 C.2       1 <0>         0.2476
     19 O3          3.3375   -0.9527    0.2312 O.3       1 <0>        -0.7040
     20 C13         4.9231   -3.4030    1.1054 C.ar      1 <0>         0.1054
     21 C14         5.1163   -2.5774    2.2148 C.ar      1 <0>        -0.1157
     22 C15         6.3164   -2.6102    2.8942 C.ar      1 <0>        -0.0228
     23 C16         7.3275   -3.4585    2.4785 C.ar      1 <0>        -0.6878
     24 C17         7.1428   -4.2789    1.3796 C.ar      1 <0>        -0.0227
     25 C18         5.9455   -4.2608    0.6948 C.ar      1 <0>        -0.1606
     26 S1          8.8572   -3.4938    3.3521 S.o2      1 <0>         2.5044
     27 O4          9.8125   -3.9265    2.3932 O.2       1 <0>        -0.9474
     28 O5          8.9625   -2.2095    3.9510 O.2       1 <0>        -0.9448
     29 C19         8.6354   -4.7626    4.6295 C.3       1 <0>        -0.6540
     30 H2          1.0039    1.9031    0.0027 H         1 <0>         0.0603
     31 H3         -0.5459    1.8868   -0.8726 H         1 <0>         0.0500
     32 H4         -0.5289    1.8773    0.9072 H         1 <0>         0.0512
     33 H5          0.5293   -0.3651    0.8851 H         1 <0>         0.0710
     34 H6         -1.0205   -0.3814    0.0098 H         1 <0>         0.0542
     35 H7          0.1910   -0.1364   -2.1398 H         1 <0>         0.0780
     36 H8          1.7408   -0.1202   -1.2645 H         1 <0>         0.1083
     37 H9         -1.7877   -4.0687   -3.3268 H         1 <0>         0.0950
     38 H10        -1.0448   -5.6351   -2.9234 H         1 <0>         0.0928
     39 H11        -2.1046   -5.5607   -0.6829 H         1 <0>         0.0655
     40 H12        -2.8475   -3.9943   -1.0863 H         1 <0>         0.0678
     41 H13        -4.0565   -5.0539   -2.9742 H         1 <0>         0.0568
     42 H14        -3.3136   -6.6203   -2.5708 H         1 <0>         0.0559
     43 H15        -4.4494   -5.8549   -1.4339 H         1 <0>         0.0564
     44 H16         4.3282   -1.9146    2.5401 H         1 <0>         0.1373
     45 H17         6.4674   -1.9719    3.7522 H         1 <0>         0.1350
     46 H18         7.9362   -4.9384    1.0603 H         1 <0>         0.1328
     47 H19         5.8008   -4.9054   -0.1595 H         1 <0>         0.1229
     48 H20         8.4190   -5.7204    4.1565 H         1 <0>         0.1288
     49 H21         9.5476   -4.8469    5.2201 H         1 <0>         0.1260
     50 H22         7.8063   -4.4827    5.2794 H         1 <0>         0.1298
@<TRIPOS>BOND
     1    1    2 1
     2    1   30 1
     3    1   31 1
     4    1   32 1
     5    2    3 1
     6    2   33 1
     7    2   34 1
     8    3    4 1
     9    3   35 1
    10    3   36 1
    11    4   10 am
    12    4    5 1
    13    5   18 1
    14    5    6 2
    15    6    7 1
    16    6   15 1
    17    7    8 2
    18    7    9 am
    19    9   10 am
    20    9   12 1
    21   10   11 2
    22   12   13 1
    23   12   37 1
    24   12   38 1
    25   13   14 1
    26   13   39 1
    27   13   40 1
    28   14   41 1
    29   14   42 1
    30   14   43 1
    31   15   16 1
    32   15   17 1
    33   17   18 2
    34   17   20 1
    35   18   19 1
    36   20   25 ar
    37   20   21 ar
    38   21   22 ar
    39   21   44 1
    40   22   23 ar
    41   22   45 1
    42   23   24 ar
    43   23   26 1
    44   24   25 ar
    45   24   46 1
    46   25   47 1
    47   26   27 2
    48   26   28 2
    49   26   29 1
    50   29   48 1
    51   29   49 1
    52   29   50 1
@<TRIPOS>MOLECULE
CHEMBL246467
   54    59     0     0     0
SMALL
USER_CHARGES

@<TRIPOS>ATOM
      1 C1          0.0766    2.2970    0.5736 C.2       1 <0>        -0.2201
      2 C2          1.4426    2.6075    0.4219 C.2       1 <0>        -0.1373
      3 C3          2.1255    1.4379    0.5394 C.2       1 <0>         0.0431
      4 O1          1.2336    0.4513    0.7529 O.3       1 <0>        -0.1516
      5 C4         -0.0059    0.9670    0.7742 C.2       1 <0>        -0.0042
      6 C5          3.5918    1.2768    0.4483 C.2       1 <0>         0.3456
      7 N1          4.2522    0.1182    0.5605 N.2       1 <0>        -0.4997
      8 C6          5.5466    0.3321    0.4290 C.2       1 <0>         0.3975
      9 C7          6.7314   -0.5219    0.4571 C.2       1 <0>        -0.0264
     10 C8          7.9788    0.0832    0.2740 C.2       1 <0>         0.2913
     11 N2          8.0552    1.4050    0.0804 N.2       1 <0>        -0.5428
     12 C9          6.9912    2.1707    0.0546 C.2       1 <0>         0.6711
     13 N3          5.7322    1.6753    0.2245 N.pl3     1 <0>        -0.3630
     14 N4          4.4561    2.2524    0.2377 N.2       1 <0>        -0.2949
     15 N5          7.1509    3.5229   -0.1493 N.pl3     1 <0>        -0.8061
     16 N6          8.9031   -0.9287    0.3448 N.pl3     1 <0>        -0.4513
     17 C10         8.2227   -2.0896    0.5622 C.2       1 <0>         0.2289
     18 N7          6.9450   -1.8457    0.6277 N.2       1 <0>        -0.4311
     19 C11        10.3551   -0.7871    0.2112 C.3       1 <0>         0.1129
     20 C12        10.9579   -0.4133    1.5668 C.3       1 <0>         0.0416
     21 N8         12.4139   -0.2713    1.4328 N.3       1 <0>        -0.5319
     22 C13        13.0407   -1.5592    1.1068 C.3       1 <0>         0.0327
     23 C14        14.5252   -1.3375    0.7983 C.3       1 <0>         0.1275
     24 N9         15.1345   -0.6174    1.9267 N.pl3     1 <0>        -0.6080
     25 C15        14.4825    0.6128    2.4006 C.3       1 <0>         0.1292
     26 C16        12.9996    0.3144    2.6461 C.3       1 <0>         0.0431
     27 C17        16.2964   -1.0871    2.5294 C.ar      1 <0>         0.4097
     28 C18        17.0137   -2.1190    1.9325 C.ar      1 <0>        -0.2287
     29 C19        18.1678   -2.5764    2.5419 C.ar      1 <0>        -0.0208
     30 C20        18.5680   -1.9838    3.7335 C.ar      1 <0>        -0.1516
     31 C21        17.8072   -0.9633    4.2699 C.ar      1 <0>         0.1685
     32 N10        16.7127   -0.5444    3.6628 N.ar      1 <0>        -0.5303
     33 Cl1        20.0086   -2.5207    4.5398 Cl        1 <0>        -0.0618
     34 H1         -0.7479    2.9937    0.5402 H         1 <0>         0.1595
     35 H2          1.8654    3.5856    0.2462 H         1 <0>         0.1602
     36 H3         -0.9177    0.4086    0.9270 H         1 <0>         0.2141
     37 H4          8.0390    3.8936   -0.2709 H         1 <0>         0.4294
     38 H5          6.3752    4.1050   -0.1715 H         1 <0>         0.4255
     39 H6          8.6750   -3.0650    0.6643 H         1 <0>         0.2270
     40 H7         10.7824   -1.7305   -0.1287 H         1 <0>         0.1022
     41 H8         10.5787   -0.0047   -0.5141 H         1 <0>         0.1087
     42 H9         10.5307    0.5301    1.9068 H         1 <0>         0.0871
     43 H10        10.7344   -1.1956    2.2921 H         1 <0>         0.0451
     44 H11        12.9427   -2.2365    1.9552 H         1 <0>         0.0442
     45 H12        12.5490   -1.9929    0.2360 H         1 <0>         0.0912
     46 H13        15.0199   -2.3001    0.6682 H         1 <0>         0.0899
     47 H14        14.6257   -0.7452   -0.1112 H         1 <0>         0.0795
     48 H15        14.9489    0.9398    3.3300 H         1 <0>         0.1021
     49 H16        14.5788    1.3927    1.6452 H         1 <0>         0.0723
     50 H17        12.4782    1.2395    2.8916 H         1 <0>         0.0894
     51 H18        12.9022   -0.3890    3.4730 H         1 <0>         0.0420
     52 H19        16.6736   -2.5572    1.0058 H         1 <0>         0.1410
     53 H20        18.7449   -3.3763    2.1020 H         1 <0>         0.1438
     54 H21        18.1138   -0.4998    5.1960 H         1 <0>         0.1646
@<TRIPOS>BOND
     1    1    5 2
     2    1    2 1
     3    1   34 1
     4    2    3 2
     5    2   35 1
     6    3    4 1
     7    3    6 1
     8    4    5 1
     9    5   36 1
    10    6   14 2
    11    6    7 1
    12    7    8 2
    13    8   13 1
    14    8    9 1
    15    9   18 1
    16    9   10 2
    17   10   11 1
    18   10   16 1
    19   11   12 2
    20   12   13 1
    21   12   15 1
    22   13   14 1
    23   15   37 1
    24   15   38 1
    25   16   17 1
    26   16   19 1
    27   17   18 2
    28   17   39 1
    29   19   20 1
    30   19   40 1
    31   19   41 1
    32   20   21 1
    33   20   42 1
    34   20   43 1
    35   21   26 1
    36   21   22 1
    37   22   23 1
    38   22   44 1
    39   22   45 1
    40   23   24 1
    41   23   46 1
    42   23   47 1
    43   24   25 1
    44   24   27 1
    45   25   26 1
    46   25   48 1
    47   25   49 1
    48   26   50 1
    49   26   51 1
    50   27   32 ar
    51   27   28 ar
    52   28   29 ar
    53   28   52 1
    54   29   30 ar
    55   29   53 1
    56   30   31 ar
    57   30   33 1
    58   31   32 ar
    59   31   54 1
@<TRIPOS>MOLECULE
CHEMBL605166
   51    55     0     0     0
SMALL
USER_CHARGES

@<TRIPOS>ATOM
      1 C1         -0.0164    1.3567    0.0095 C.ar      1 <0>        -0.1156
      2 C2          1.1685    2.0906    0.0021 C.ar      1 <0>        -0.1109
      3 C3          2.3785    1.4679   -0.0132 C.ar      1 <0>        -0.1078
      4 C4          2.4378    0.0637   -0.0214 C.ar      1 <0>        -0.0354
      5 C5          1.2328   -0.6827   -0.0134 C.ar      1 <0>        -0.0550
      6 C6          0.0021   -0.0041    0.0020 C.ar      1 <0>        -0.1046
      7 C7          1.2920   -2.0865   -0.0210 C.ar      1 <0>        -0.0943
      8 C8          2.5022   -2.7094   -0.0359 C.ar      1 <0>        -0.1202
      9 C9          3.6867   -1.9757   -0.0433 C.ar      1 <0>        -0.0884
     10 C10         3.6681   -0.6146   -0.0367 C.ar      1 <0>        -0.1024
     11 C11         4.9603    0.1606   -0.0459 C.3       1 <0>         0.1704
     12 N1          5.2692    0.6111    1.3134 N.pl3     1 <0>        -0.6896
     13 C12         6.4158    1.3475    1.5546 C.ar      1 <0>         0.5056
     14 C13         6.7309    1.7830    2.8532 C.ar      1 <0>        -0.1008
     15 C14         7.9085    2.5271    3.0358 C.ar      1 <0>         0.3085
     16 N2          8.6763    2.7901    1.9830 N.ar      1 <0>        -0.5632
     17 C15         8.3413    2.3612    0.7846 C.ar      1 <0>         0.3612
     18 N3          7.2473    1.6547    0.5646 N.ar      1 <0>        -0.5903
     19 N4          7.9688    2.8173    4.3753 N.pl3     1 <0>        -0.4635
     20 C16         6.8691    2.2661    4.9627 C.2       1 <0>         0.2810
     21 N5          6.1441    1.6598    4.0680 N.2       1 <0>        -0.4673
     22 C17         9.0220    3.5793    5.0507 C.3       1 <0>         0.3142
     23 C18        10.1905    2.6414    5.4228 C.3       1 <0>         0.0769
     24 H1         11.0101    2.7417    4.7113 H         1 <0>         0.0987
     25 C19        10.6056    3.1713    6.8224 C.3       1 <0>         0.0474
     26 H2         11.2831    4.0208    6.7358 H         1 <0>         0.0934
     27 C20         9.2319    3.6083    7.3907 C.3       1 <0>         0.0513
     28 H3          8.7039    2.7499    7.8061 H         1 <0>         0.0982
     29 O1          8.5128    4.1398    6.2666 O.3       1 <0>        -0.3465
     30 C21         9.4185    4.6849    8.4617 C.3       1 <0>         0.0780
     31 O2          8.1549    4.9909    9.0547 O.3       1 <0>        -0.5628
     32 O3         11.1851    2.1331    7.6151 O.3       1 <0>        -0.5427
     33 O4          9.7490    1.2844    5.4987 O.3       1 <0>        -0.5344
     34 H4         -0.9634    1.8756    0.0259 H         1 <0>         0.1239
     35 H5          1.1258    3.1698    0.0084 H         1 <0>         0.1231
     36 H6          3.2883    2.0497   -0.0195 H         1 <0>         0.1269
     37 H7         -0.9241   -0.5595    0.0082 H         1 <0>         0.1279
     38 H8          0.3820   -2.6682   -0.0147 H         1 <0>         0.1289
     39 H9          2.5450   -3.7886   -0.0417 H         1 <0>         0.1265
     40 H10         4.6338   -2.4947   -0.0548 H         1 <0>         0.1262
     41 H11         5.7651   -0.4789   -0.4084 H         1 <0>         0.0812
     42 H12         4.8604    1.0257   -0.7015 H         1 <0>         0.0811
     43 H13         4.6700    0.3932    2.0445 H         1 <0>         0.4192
     44 H14         8.9871    2.5926   -0.0495 H         1 <0>         0.2027
     45 H15         6.6341    2.3240    6.0152 H         1 <0>         0.2147
     46 H16         9.3789    4.3756    4.3975 H         1 <0>         0.1361
     47 H17        10.1011    4.3197    9.2290 H         1 <0>         0.0637
     48 H18         9.8326    5.5838    8.0050 H         1 <0>         0.0592
     49 H19         8.1975    5.6676    9.7442 H         1 <0>         0.3858
     50 H20        11.4594    2.4185    8.4974 H         1 <0>         0.3904
     51 H21        10.4469    0.6561    5.7295 H         1 <0>         0.3934
@<TRIPOS>BOND
     1    1    6 ar
     2    1    2 ar
     3    1   34 1
     4    2    3 ar
     5    2   35 1
     6    3    4 ar
     7    3   36 1
     8    4   10 ar
     9    4    5 ar
    10    5    6 ar
    11    5    7 ar
    12    6   37 1
    13    7    8 ar
    14    7   38 1
    15    8    9 ar
    16    8   39 1
    17    9   10 ar
    18    9   40 1
    19   10   11 1
    20   11   12 1
    21   11   41 1
    22   11   42 1
    23   12   13 1
    24   12   43 1
    25   13   18 ar
    26   13   14 ar
    27   14   21 1
    28   14   15 ar
    29   15   16 ar
    30   15   19 1
    31   16   17 ar
    32   17   18 ar
    33   17   44 1
    34   19   20 1
    35   19   22 1
    36   20   21 2
    37   20   45 1
    38   22   29 1
    39   22   23 1
    40   22   46 1
    41   23   24 1
    42   23   25 1
    43   23   33 1
    44   25   26 1
    45   25   27 1
    46   25   32 1
    47   27   28 1
    48   27   29 1
    49   27   30 1
    50   30   31 1
    51   30   47 1
    52   30   48 1
    53   31   49 1
    54   32   50 1
    55   33   51 1
@<TRIPOS>MOLECULE
CHEMBL296389
   50    53     0     0     0
SMALL
USER_CHARGES

@<TRIPOS>ATOM
      1 C1         -0.4009    1.4270    0.0567 C.3       1 <0>         0.0672
      2 N1         -0.1690   -0.0191    0.0228 N.pl3     1 <0>        -0.4615
      3 C2         -0.1942   -0.8226   -1.0904 C.ar      1 <0>         0.3096
      4 C3          0.0828   -2.1269   -0.6383 C.ar      1 <0>        -0.0968
      5 C4          0.1192   -3.1677   -1.5867 C.ar      1 <0>         0.5180
      6 N2         -0.1085   -2.8744   -2.8602 N.ar      1 <0>        -0.5724
      7 C5         -0.3665   -1.6269   -3.2430 C.ar      1 <0>         0.5012
      8 N3         -0.4104   -0.6180   -2.3831 N.ar      1 <0>        -0.5367
      9 C6         -0.6052   -1.3643   -4.6303 C.1       1 <0>        -0.1119
     10 C7         -0.8009   -1.1491   -5.7677 C.1       1 <0>        -0.0894
     11 C8         -1.0463   -0.8792   -7.1938 C.3       1 <0>         0.2502
     12 C9          0.1698   -1.2556   -7.9960 C.3       1 <0>        -0.1412
     13 C10         1.4654   -1.1990   -7.1642 C.3       1 <0>        -0.1146
     14 C11         1.5279    0.0309   -6.2384 C.3       1 <0>        -0.1444
     15 C12         1.0326    1.2829   -6.9102 C.3       1 <0>        -0.1164
     16 C13        -0.4616    1.4619   -6.5723 C.3       1 <0>        -0.1262
     17 C14        -1.3209    0.6250   -7.3966 C.3       1 <0>        -0.0983
     18 O1         -2.1730   -1.6371   -7.6388 O.3       1 <0>        -0.5438
     19 N4          0.3872   -4.4685   -1.1981 N.pl3     1 <0>        -0.8117
     20 N5          0.2599   -2.0625    0.6941 N.2       1 <0>        -0.4379
     21 C15         0.1198   -0.8227    1.0966 C.2       1 <0>         0.3092
     22 C16         0.2496   -0.3614    2.4955 C.ar      1 <0>         0.0052
     23 C17         0.1595   -1.2759    3.5461 C.ar      1 <0>        -0.0809
     24 C18         0.2811   -0.8405    4.8494 C.ar      1 <0>        -0.0862
     25 C19         0.4921    0.5002    5.1177 C.ar      1 <0>        -0.1364
     26 C20         0.5823    1.4141    4.0803 C.ar      1 <0>         0.1049
     27 C21         0.4682    0.9888    2.7702 C.ar      1 <0>        -0.1513
     28 F1          0.7880    2.7220    4.3495 F         1 <0>        -0.1331
     29 H1          0.5553    1.9492    0.0231 H         1 <0>         0.0852
     30 H2         -1.0045    1.7185   -0.8028 H         1 <0>         0.1003
     31 H3         -0.9260    1.6894    0.9752 H         1 <0>         0.0966
     32 H4          0.0404   -2.2679   -8.3788 H         1 <0>         0.0753
     33 H5          0.2619   -0.5709   -8.8391 H         1 <0>         0.0825
     34 H6          1.5320   -2.1009   -6.5556 H         1 <0>         0.0614
     35 H7          2.3180   -1.1718   -7.8429 H         1 <0>         0.0654
     36 H8          0.9177   -0.1608   -5.3558 H         1 <0>         0.0787
     37 H9          2.5604    0.1839   -5.9245 H         1 <0>         0.0570
     38 H10         1.5960    2.1417   -6.5451 H         1 <0>         0.0640
     39 H11         1.1558    1.1926   -7.9894 H         1 <0>         0.0669
     40 H12        -0.6197    1.2061   -5.5246 H         1 <0>         0.0686
     41 H13        -0.7352    2.5060   -6.7240 H         1 <0>         0.0703
     42 H14        -1.1572    0.8755   -8.4448 H         1 <0>         0.0798
     43 H15        -2.3612    0.8310   -7.1447 H         1 <0>         0.0772
     44 H16        -2.0654   -2.5935   -7.5453 H         1 <0>         0.3843
     45 H17         0.5525   -4.6715   -0.2641 H         1 <0>         0.4215
     46 H18         0.4098   -5.1775   -1.8598 H         1 <0>         0.4131
     47 H19        -0.0056   -2.3229    3.3390 H         1 <0>         0.1454
     48 H20         0.2110   -1.5479    5.6624 H         1 <0>         0.1443
     49 H21         0.5867    0.8357    6.1399 H         1 <0>         0.1428
     50 H22         0.5433    1.7006    1.9614 H         1 <0>         0.1446
@<TRIPOS>BOND
     1    1    2 1
     2    1   29 1
     3    1   30 1
     4    1   31 1
     5    2   21 1
     6    2    3 1
     7    3    8 ar
     8    3    4 ar
     9    4    5 ar
    10    4   20 1
    11    5    6 ar
    12    5   19 1
    13    6    7 ar
    14    7    8 ar
    15    7    9 1
    16    9   10 3
    17   10   11 1
    18   11   17 1
    19   11   12 1
    20   11   18 1
    21   12   13 1
    22   12   32 1
    23   12   33 1
    24   13   14 1
    25   13   34 1
    26   13   35 1
    27   14   15 1
    28   14   36 1
    29   14   37 1
    30   15   16 1
    31   15   38 1
    32   15   39 1
    33   16   17 1
    34   16   40 1
    35   16   41 1
    36   17   42 1
    37   17   43 1
    38   18   44 1
    39   19   45 1
    40   19   46 1
    41   20   21 2
    42   21   22 1
    43   22   27 ar
    44   22   23 ar
    45   23   24 ar
    46   23   47 1
    47   24   25 ar
    48   24   48 1
    49   25   26 ar
    50   25   49 1
    51   26   27 ar
    52   26   28 1
    53   27   50 1
@<TRIPOS>MOLECULE
CHEMBL270761
   54    57     0     0     0
SMALL
USER_CHARGES

@<TRIPOS>ATOM
      1 C1         -0.2211    1.6511   -0.8009 C.3       1 <0>        -0.0777
      2 C2         -0.0895    0.1676   -0.5711 C.2       1 <0>         0.0974
      3 C3         -0.2433   -0.8287   -1.5426 C.2       1 <0>        -0.2569
      4 C4         -0.0477   -2.0266   -0.9464 C.2       1 <0>         0.1126
      5 N1          0.2221   -1.7938    0.3653 N.pl3     1 <0>        -0.3208
      6 N2          0.1936   -0.4080    0.5686 N.2       1 <0>        -0.2570
      7 C5          0.4853   -2.7617    1.3348 C.ar      1 <0>         0.6090
      8 N3          0.5949   -2.3915    2.5987 N.ar      1 <0>        -0.5172
      9 C6          0.8457   -3.2887    3.5537 C.ar      1 <0>         0.3170
     10 C7          0.9917   -4.6311    3.1995 C.ar      1 <0>        -0.2356
     11 C8          0.8685   -4.9770    1.8562 C.ar      1 <0>         0.4388
     12 N4          0.6128   -4.0253    0.9638 N.ar      1 <0>        -0.5269
     13 N5          1.0059   -6.3015    1.4542 N.am      1 <0>        -0.6494
     14 C9          0.9902   -6.6128    0.1429 C.2       1 <0>         0.5063
     15 O1          0.7637   -5.7530   -0.6817 O.2       1 <0>        -0.4479
     16 C10         1.2542   -8.0293   -0.2984 C.3       1 <0>         0.0377
     17 N6          1.1813   -8.1074   -1.7635 N.3       1 <0>        -0.5226
     18 C11        -0.1855   -7.8481   -2.2374 C.3       1 <0>         0.0174
     19 C12        -0.2064   -7.8796   -3.7672 C.3       1 <0>        -0.0001
     20 N7          0.2518   -9.1940   -4.2363 N.4       1 <0>        -0.3893
     21 C13         1.6269   -9.4280   -3.7759 C.3       1 <0>        -0.0014
     22 C14         1.6630   -9.4094   -2.2462 C.3       1 <0>         0.0269
     23 C15         0.2145   -9.2299   -5.7044 C.3       1 <0>        -0.0459
     24 C16         0.9675   -2.8677    4.9655 C.2       1 <0>         0.1006
     25 N8          1.2164   -3.5989    6.0430 N.2       1 <0>        -0.4679
     26 C17         1.2912   -3.0559    7.2327 C.2       1 <0>         0.0179
     27 C18         1.1113   -1.7137    7.3780 C.2       1 <0>        -0.1848
     28 S1          0.8267   -1.2341    5.6786 S.3       1 <0>         0.1144
     29 C19        -0.1173   -3.3754   -1.6149 C.3       1 <0>        -0.0768
     30 H1          0.7493    2.0636   -1.0771 H         1 <0>         0.0844
     31 H2         -0.9350    1.8323   -1.6044 H         1 <0>         0.0841
     32 H3         -0.5730    2.1305    0.1126 H         1 <0>         0.0791
     33 H4         -0.4773   -0.6687   -2.5847 H         1 <0>         0.1598
     34 H5          1.1955   -5.3822    3.9482 H         1 <0>         0.1684
     35 H6          1.1130   -7.0011    2.1175 H         1 <0>         0.4283
     36 H7          2.2470   -8.3340    0.0328 H         1 <0>         0.1244
     37 H8          0.5065   -8.6913    0.1384 H         1 <0>         0.0829
     38 H9         -0.8567   -8.6140   -1.8487 H         1 <0>         0.0585
     39 H10        -0.5113   -6.8679   -1.8894 H         1 <0>         0.1396
     40 H11        -1.2221   -7.7016   -4.1205 H         1 <0>         0.1366
     41 H12         0.4544   -7.1046   -4.1556 H         1 <0>         0.1406
     42 H13         1.9703  -10.3980   -4.1356 H         1 <0>         0.1378
     43 H14         2.2783   -8.6451   -4.1643 H         1 <0>         0.1393
     44 H15         2.6858   -9.5682   -1.9046 H         1 <0>         0.1261
     45 H16         1.0223  -10.2010   -1.8576 H         1 <0>         0.0639
     46 H17         0.8673   -8.4537   -6.1036 H         1 <0>         0.1237
     47 H18         0.5545  -10.2052   -6.0527 H         1 <0>         0.1242
     48 H19        -0.8061   -9.0576   -6.0462 H         1 <0>         0.1246
     49 H20         1.4946   -3.6712    8.0966 H         1 <0>         0.1782
     50 H21         1.1377   -1.1069    8.2710 H         1 <0>         0.2079
     51 H22         0.8863   -3.6928   -1.8980 H         1 <0>         0.0837
     52 H23        -0.5468   -4.1014   -0.9246 H         1 <0>         0.0962
     53 H24        -0.7417   -3.3076   -2.5057 H         1 <0>         0.0683
     54 H25        -0.3531   -9.9122   -3.8672 H         1 <0>         0.4218
@<TRIPOS>BOND
     1    1    2 1
     2    1   30 1
     3    1   31 1
     4    1   32 1
     5    2    6 2
     6    2    3 1
     7    3    4 2
     8    3   33 1
     9    4    5 1
    10    4   29 1
    11    5    6 1
    12    5    7 1
    13    7   12 ar
    14    7    8 ar
    15    8    9 ar
    16    9   10 ar
    17    9   24 1
    18   10   11 ar
    19   10   34 1
    20   11   12 ar
    21   11   13 1
    22   13   14 am
    23   13   35 1
    24   14   15 2
    25   14   16 1
    26   16   17 1
    27   16   36 1
    28   16   37 1
    29   17   22 1
    30   17   18 1
    31   18   19 1
    32   18   38 1
    33   18   39 1
    34   19   20 1
    35   19   40 1
    36   19   41 1
    37   20   21 1
    38   20   23 1
    39   20   54 1
    40   21   22 1
    41   21   42 1
    42   21   43 1
    43   22   44 1
    44   22   45 1
    45   23   46 1
    46   23   47 1
    47   23   48 1
    48   24   28 1
    49   24   25 2
    50   25   26 1
    51   26   27 2
    52   26   49 1
    53   27   28 1
    54   27   50 1
    55   29   51 1
    56   29   52 1
    57   29   53 1
@<TRIPOS>MOLECULE
CHEMBL270136
   51    54     0     0     0
SMALL
USER_CHARGES

@<TRIPOS>ATOM
      1 C1         -0.0101    1.4637    0.0072 C.3       1 <0>        -0.0458
      2 N1          0.0088   -0.0052   -0.0002 N.4       1 <0>        -0.3893
      3 C2         -1.3697   -0.5123    0.0073 C.3       1 <0>        -0.0014
      4 C3         -1.3507   -2.0422   -0.0195 C.3       1 <0>         0.0266
      5 N2         -0.6205   -2.5409    1.1545 N.3       1 <0>        -0.5231
      6 C4          0.7541   -2.0212    1.1738 C.3       1 <0>         0.0177
      7 C5          0.7178   -0.4915    1.1907 C.3       1 <0>         0.0007
      8 C6         -0.6288   -4.0093    1.1950 C.3       1 <0>         0.0374
      9 C7         -0.0926   -4.4782    2.5230 C.2       1 <0>         0.5056
     10 O1          0.2615   -3.6690    3.3538 O.2       1 <0>        -0.4498
     11 N3         -0.0067   -5.7970    2.7874 N.am      1 <0>        -0.6530
     12 C8          0.5851   -6.2324    3.9683 C.ar      1 <0>         0.4077
     13 C9          0.7738   -7.5944    4.2034 C.ar      1 <0>        -0.2260
     14 C10         1.3713   -7.9848    5.4005 C.ar      1 <0>         0.2552
     15 N4          1.7401   -7.0511    6.2749 N.ar      1 <0>        -0.5188
     16 C11         1.5444   -5.7643    6.0168 C.ar      1 <0>         0.4412
     17 N5          0.9824   -5.3570    4.8836 N.ar      1 <0>        -0.5005
     18 C12         1.9670   -4.7594    7.0112 C.2       1 <0>        -0.1314
     19 C13         1.8596   -3.3939    6.9586 C.2       1 <0>        -0.0881
     20 C14         2.3292   -2.6522    8.0175 C.2       1 <0>        -0.1738
     21 C15         2.8838   -3.2925    9.0807 C.2       1 <0>        -0.1595
     22 S1          2.7441   -5.0060    8.5996 S.3       1 <0>         0.1251
     23 C16         1.5931   -9.4222    5.6966 C.ar      1 <0>         0.1448
     24 C17         2.1864   -9.7957    6.9000 C.ar      1 <0>        -0.1173
     25 C18         2.3869  -11.1405    7.1624 C.ar      1 <0>        -0.0785
     26 C19         1.9867  -12.0674    6.2110 C.ar      1 <0>        -0.1499
     27 C20         1.4035  -11.6254    5.0370 C.ar      1 <0>         0.1018
     28 N6          1.2197  -10.3404    4.8153 N.ar      1 <0>        -0.4666
     29 H1          1.0128    1.8403    0.0004 H         1 <0>         0.1244
     30 H2         -0.5362    1.8248   -0.8765 H         1 <0>         0.1243
     31 H3         -0.5209    1.8159    0.9034 H         1 <0>         0.1235
     32 H4         -1.8775   -0.1710    0.9093 H         1 <0>         0.1391
     33 H5         -1.8985   -0.1401   -0.8702 H         1 <0>         0.1379
     34 H6         -2.3733   -2.4191    0.0011 H         1 <0>         0.1261
     35 H7         -0.8550   -2.3839   -0.9282 H         1 <0>         0.0636
     36 H8          1.2671   -2.3827    2.0650 H         1 <0>         0.1393
     37 H9          1.2845   -2.3626    0.2848 H         1 <0>         0.0582
     38 H10         1.7365   -0.1038    1.1907 H         1 <0>         0.1364
     39 H11         0.1993   -0.1503    2.0868 H         1 <0>         0.1402
     40 H12        -1.6493   -4.3705    1.0672 H         1 <0>         0.1231
     41 H13        -0.0024   -4.3985    0.3924 H         1 <0>         0.0825
     42 H14        -0.3575   -6.4425    2.1540 H         1 <0>         0.4251
     43 H15         0.4639   -8.3291    3.4751 H         1 <0>         0.1630
     44 H16         1.4150   -2.9095    6.1018 H         1 <0>         0.1453
     45 H17         2.2586   -1.5746    8.0043 H         1 <0>         0.1391
     46 H18         3.2979   -2.8729    9.9855 H         1 <0>         0.1929
     47 H19         2.4862   -9.0470    7.6183 H         1 <0>         0.1496
     48 H20         2.8448  -11.4604    8.0867 H         1 <0>         0.1443
     49 H21         2.1293  -13.1237    6.3851 H         1 <0>         0.1436
     50 H22         1.0911  -12.3442    4.2939 H         1 <0>         0.1656
     51 H23         0.4821   -0.3310   -0.8296 H         1 <0>         0.4217
@<TRIPOS>BOND
     1    1    2 1
     2    1   29 1
     3    1   30 1
     4    1   31 1
     5    2    7 1
     6    2    3 1
     7    2   51 1
     8    3    4 1
     9    3   32 1
    10    3   33 1
    11    4    5 1
    12    4   34 1
    13    4   35 1
    14    5    6 1
    15    5    8 1
    16    6    7 1
    17    6   36 1
    18    6   37 1
    19    7   38 1
    20    7   39 1
    21    8    9 1
    22    8   40 1
    23    8   41 1
    24    9   10 2
    25    9   11 am
    26   11   12 1
    27   11   42 1
    28   12   17 ar
    29   12   13 ar
    30   13   14 ar
    31   13   43 1
    32   14   15 ar
    33   14   23 1
    34   15   16 ar
    35   16   17 ar
    36   16   18 1
    37   18   22 1
    38   18   19 2
    39   19   20 1
    40   19   44 1
    41   20   21 2
    42   20   45 1
    43   21   22 1
    44   21   46 1
    45   23   28 ar
    46   23   24 ar
    47   24   25 ar
    48   24   47 1
    49   25   26 ar
    50   25   48 1
    51   26   27 ar
    52   26   49 1
    53   27   28 ar
    54   27   50 1
@<TRIPOS>MOLECULE
CHEMBL16867
   41    45     0     0     0
SMALL
USER_CHARGES

@<TRIPOS>ATOM
      1 C1         -0.0167    1.3781    0.0096 C.ar      1 <0>        -0.1184
      2 C2          1.1709    2.0855    0.0021 C.ar      1 <0>        -0.1180
      3 C3          2.3773    1.4107   -0.0130 C.ar      1 <0>        -0.1142
      4 C4          2.3960    0.0285   -0.0201 C.ar      1 <0>        -0.0891
      5 C5          1.2084   -0.6789   -0.0117 C.ar      1 <0>        -0.1113
      6 C6          0.0021   -0.0041    0.0020 C.ar      1 <0>        -0.1174
      7 C7          3.7112   -0.7071   -0.0376 C.3       1 <0>        -0.0917
      8 C8          4.1714   -0.9633    1.3989 C.3       1 <0>         0.1354
      9 N1          5.4498   -1.6784    1.3820 N.pl3     1 <0>        -0.3410
     10 C9          6.5699   -1.2759    2.0073 C.2       1 <0>         0.1613
     11 C10         7.5466   -2.2046    1.7564 C.2       1 <0>        -0.2755
     12 C11         6.9387   -3.2417    0.9077 C.2       1 <0>         0.3228
     13 N2          5.6880   -2.8871    0.7172 N.2       1 <0>        -0.2678
     14 N3          7.7100   -4.2894    0.5136 N.2       1 <0>        -0.5331
     15 C12         8.9620   -4.3948    0.8667 C.2       1 <0>         0.6849
     16 N4          9.6106   -3.4805    1.6532 N.pl3     1 <0>        -0.3798
     17 C13         8.9582   -2.3726    2.1239 C.2       1 <0>         0.4126
     18 N5          9.8084   -1.6741    2.8424 N.2       1 <0>        -0.5147
     19 C14        10.9984   -2.2902    2.8567 C.2       1 <0>         0.3417
     20 N6         10.9218   -3.3971    2.1446 N.2       1 <0>        -0.2894
     21 C15        12.2046   -1.8065    3.5604 C.2       1 <0>         0.0441
     22 C16        13.4179   -2.4196    3.5776 C.2       1 <0>        -0.1382
     23 C17        14.2677   -1.6158    4.3632 C.2       1 <0>        -0.2190
     24 C18        13.5387   -0.5629    4.7825 C.2       1 <0>        -0.0061
     25 O1         12.2944   -0.6787    4.2915 O.3       1 <0>        -0.1533
     26 N7          9.6706   -5.4872    0.4237 N.pl3     1 <0>        -0.8079
     27 H1         -0.9591    1.9053    0.0259 H         1 <0>         0.1229
     28 H2          1.1563    3.1654    0.0076 H         1 <0>         0.1236
     29 H3          3.3051    1.9634   -0.0196 H         1 <0>         0.1228
     30 H4          1.2231   -1.7588   -0.0176 H         1 <0>         0.1246
     31 H5         -0.9258   -0.5567    0.0082 H         1 <0>         0.1239
     32 H6          3.5884   -1.6586   -0.5549 H         1 <0>         0.0928
     33 H7          4.4573   -0.1052   -0.5563 H         1 <0>         0.0812
     34 H8          4.2941   -0.0118    1.9163 H         1 <0>         0.1083
     35 H9          3.4252   -1.5652    1.9176 H         1 <0>         0.0986
     36 H10         6.6805   -0.3806    2.6010 H         1 <0>         0.1979
     37 H11        13.6797   -3.3441    3.0846 H         1 <0>         0.1602
     38 H12        15.3067   -1.8075    4.5871 H         1 <0>         0.1593
     39 H13        13.8970    0.2425    5.4064 H         1 <0>         0.2138
     40 H14         9.2380   -6.1520   -0.1347 H         1 <0>         0.4298
     41 H15        10.6029   -5.5929    0.6698 H         1 <0>         0.4235
@<TRIPOS>BOND
     1    1    6 ar
     2    1    2 ar
     3    1   27 1
     4    2    3 ar
     5    2   28 1
     6    3    4 ar
     7    3   29 1
     8    4    5 ar
     9    4    7 1
    10    5    6 ar
    11    5   30 1
    12    6   31 1
    13    7    8 1
    14    7   32 1
    15    7   33 1
    16    8    9 1
    17    8   34 1
    18    8   35 1
    19    9   13 1
    20    9   10 1
    21   10   11 2
    22   10   36 1
    23   11   17 1
    24   11   12 1
    25   12   13 2
    26   12   14 1
    27   14   15 2
    28   15   16 1
    29   15   26 1
    30   16   20 1
    31   16   17 1
    32   17   18 2
    33   18   19 1
    34   19   20 2
    35   19   21 1
    36   21   25 1
    37   21   22 2
    38   22   23 1
    39   22   37 1
    40   23   24 2
    41   23   38 1
    42   24   25 1
    43   24   39 1
    44   26   40 1
    45   26   41 1
@<TRIPOS>MOLECULE
CHEMBL487572
   47    49     0     0     0
SMALL
USER_CHARGES

@<TRIPOS>ATOM
      1 C1         -0.2209    1.6523   -0.8070 C.3       1 <0>        -0.0736
      2 C2         -0.0893    0.1689   -0.5756 C.2       1 <0>         0.0914
      3 C3         -0.2434   -0.8283   -1.5461 C.2       1 <0>        -0.2646
      4 C4         -0.0487   -2.0257   -0.9485 C.2       1 <0>         0.1209
      5 N1          0.2209   -1.7916    0.3630 N.pl3     1 <0>        -0.3189
      6 N2          0.1938   -0.4055    0.5646 N.2       1 <0>        -0.2613
      7 C5          0.4826   -2.7585    1.3338 C.ar      1 <0>         0.5976
      8 N3          0.5922   -2.3870    2.5976 N.ar      1 <0>        -0.5195
      9 C6          0.8412   -3.2818    3.5528 C.ar      1 <0>         0.2709
     10 C7          0.9858   -4.6226    3.2025 C.ar      1 <0>        -0.2431
     11 C8          0.8630   -4.9723    1.8590 C.ar      1 <0>         0.4333
     12 N4          0.6089   -4.0228    0.9647 N.ar      1 <0>        -0.5282
     13 N5          0.9992   -6.2977    1.4603 N.am      1 <0>        -0.6541
     14 C9          0.9840   -6.6122    0.1499 C.2       1 <0>         0.5012
     15 O1          0.7588   -5.7543   -0.6770 O.2       1 <0>        -0.4681
     16 C10         1.2468   -8.0301   -0.2878 C.3       1 <0>        -0.1707
     17 C11         0.9632   -2.8565    4.9693 C.ar      1 <0>         0.1988
     18 C12         0.8106   -1.5141    5.3010 C.ar      1 <0>        -0.1719
     19 C13         0.9260   -1.1269    6.6276 C.ar      1 <0>        -0.0384
     20 C14         1.1906   -2.0958    7.5797 C.ar      1 <0>        -0.2185
     21 C15         1.3322   -3.4223    7.1806 C.ar      1 <0>         0.4035
     22 N6          1.2116   -3.7614    5.9081 N.ar      1 <0>        -0.5243
     23 N7          1.5985   -4.4013    8.1306 N.pl3     1 <0>        -0.6186
     24 C16         1.6201   -4.0544    9.5538 C.3       1 <0>         0.0940
     25 C17         1.8575   -5.7802    7.7088 C.3       1 <0>         0.0985
     26 C18        -0.1188   -3.3752   -1.6155 C.3       1 <0>        -0.0818
     27 H1          0.7495    2.0643   -1.0838 H         1 <0>         0.0815
     28 H2         -0.9349    1.8327   -1.6106 H         1 <0>         0.0820
     29 H3         -0.5726    2.1326    0.1061 H         1 <0>         0.0764
     30 H4         -0.4767   -0.6694   -2.5885 H         1 <0>         0.1584
     31 H5          1.1885   -5.3721    3.9532 H         1 <0>         0.1639
     32 H6          1.1053   -6.9958    2.1255 H         1 <0>         0.4254
     33 H7          0.3050   -8.5771   -0.3324 H         1 <0>         0.1000
     34 H8          1.7115   -8.0258   -1.2738 H         1 <0>         0.1013
     35 H9          1.9139   -8.5130    0.4262 H         1 <0>         0.0841
     36 H10         0.6049   -0.7819    4.5342 H         1 <0>         0.1486
     37 H11         0.8122   -0.0911    6.9117 H         1 <0>         0.1412
     38 H12         1.2865   -1.8259    8.6210 H         1 <0>         0.1381
     39 H13         0.6215   -4.1772    9.9729 H         1 <0>         0.0541
     40 H14         2.3168   -4.7094   10.0769 H         1 <0>         0.0736
     41 H15         1.9383   -3.0184    9.6704 H         1 <0>         0.0719
     42 H16         2.9257   -5.9133    7.5380 H         1 <0>         0.0477
     43 H17         1.5257   -6.4668    8.4877 H         1 <0>         0.0642
     44 H18         1.3137   -5.9864    6.7870 H         1 <0>         0.0776
     45 H19         0.8847   -3.6935   -1.8979 H         1 <0>         0.0849
     46 H20        -0.5489   -4.1002   -0.9245 H         1 <0>         0.0992
     47 H21        -0.7429   -3.3081   -2.5066 H         1 <0>         0.0713
@<TRIPOS>BOND
     1    1    2 1
     2    1   27 1
     3    1   28 1
     4    1   29 1
     5    2    6 2
     6    2    3 1
     7    3    4 2
     8    3   30 1
     9    4    5 1
    10    4   26 1
    11    5    6 1
    12    5    7 1
    13    7   12 ar
    14    7    8 ar
    15    8    9 ar
    16    9   10 ar
    17    9   17 1
    18   10   11 ar
    19   10   31 1
    20   11   12 ar
    21   11   13 1
    22   13   14 am
    23   13   32 1
    24   14   15 2
    25   14   16 1
    26   16   33 1
    27   16   34 1
    28   16   35 1
    29   17   22 ar
    30   17   18 ar
    31   18   19 ar
    32   18   36 1
    33   19   20 ar
    34   19   37 1
    35   20   21 ar
    36   20   38 1
    37   21   22 ar
    38   21   23 1
    39   23   24 1
    40   23   25 1
    41   24   39 1
    42   24   40 1
    43   24   41 1
    44   25   42 1
    45   25   43 1
    46   25   44 1
    47   26   45 1
    48   26   46 1
    49   26   47 1
@<TRIPOS>MOLECULE
CHEMBL605065
   58    61     0     0     0
SMALL
USER_CHARGES

@<TRIPOS>ATOM
      1 C1         -0.0187    1.5258    0.0104 C.3       1 <0>        -0.1666
      2 C2          0.0021   -0.0041    0.0020 C.3       1 <0>         0.1127
      3 N1         -1.3723   -0.5112    0.0124 N.am      1 <0>        -0.7289
      4 C3         -1.6006   -1.8394    0.0075 C.2       1 <0>         0.4959
      5 O1         -0.6682   -2.6149   -0.0056 O.2       1 <0>        -0.5061
      6 C4         -3.0144   -2.3611    0.0182 C.3       1 <0>         0.0435
      7 H1         -3.5693   -1.9423   -0.8214 H         1 <0>         0.1278
      8 C5         -3.7041   -1.9776    1.3451 C.3       1 <0>         0.0514
      9 H2         -2.9665   -1.7866    2.1246 H         1 <0>         0.0968
     10 C6         -4.5311   -3.2521    1.6670 C.3       1 <0>         0.0772
     11 H3         -4.6779   -3.3642    2.7412 H         1 <0>         0.1047
     12 C7         -3.5965   -4.3569    1.1129 C.3       1 <0>         0.3203
     13 O2         -3.0056   -3.7907   -0.0698 O.3       1 <0>        -0.3330
     14 N2         -4.3702   -5.5529    0.7708 N.pl3     1 <0>        -0.4607
     15 C8         -4.8575   -5.8737   -0.4615 C.2       1 <0>         0.2864
     16 N3         -5.4964   -7.0066   -0.4065 N.2       1 <0>        -0.4649
     17 C9         -5.4606   -7.4843    0.8598 C.ar      1 <0>        -0.0987
     18 C10        -4.7327   -6.5597    1.6308 C.ar      1 <0>         0.3121
     19 N4         -4.5460   -6.7985    2.9222 N.ar      1 <0>        -0.5409
     20 C11        -5.0364   -7.8973    3.4834 C.ar      1 <0>         0.5083
     21 N5         -5.7285   -8.7995    2.7900 N.ar      1 <0>        -0.5693
     22 C12        -5.9662   -8.6333    1.4957 C.ar      1 <0>         0.5128
     23 N6         -6.6847   -9.5771    0.7825 N.pl3     1 <0>        -0.8157
     24 C13        -4.8134   -8.1200    4.8803 C.1       1 <0>        -0.1284
     25 C14        -4.6306   -8.3025    6.0255 C.1       1 <0>        -0.0186
     26 C15        -4.4075   -8.5252    7.4224 C.ar      1 <0>        -0.0256
     27 C16        -3.6893   -7.5929    8.1762 C.ar      1 <0>        -0.0820
     28 C17        -3.4785   -7.8142    9.5211 C.ar      1 <0>        -0.1228
     29 C18        -3.9761   -8.9559   10.1243 C.ar      1 <0>        -0.0428
     30 C19        -4.6878   -9.8837    9.3843 C.ar      1 <0>        -0.1224
     31 C20        -4.9120   -9.6731    8.0399 C.ar      1 <0>        -0.0815
     32 C21        -3.7414   -9.1902   11.5944 C.3       1 <0>        -0.0650
     33 C22        -4.8875   -8.5733   12.3985 C.3       1 <0>        -0.1756
     34 C23        -4.6527   -8.8077   13.8686 C.2       1 <0>         0.4896
     35 O3         -3.6607   -9.4121   14.2388 O.co2     1 <0>        -0.6985
     36 O4         -5.4549   -8.3928   14.6877 O.co2     1 <0>        -0.7052
     37 O5         -5.7828   -3.2417    0.9776 O.3       1 <0>        -0.5330
     38 O6         -4.5567   -0.8449    1.1663 O.3       1 <0>        -0.5368
     39 H4          1.0039    1.9031    0.0027 H         1 <0>         0.0777
     40 H5         -0.5459    1.8868   -0.8726 H         1 <0>         0.0632
     41 H6         -0.5289    1.8773    0.9072 H         1 <0>         0.0633
     42 H7          0.5123   -0.3556   -0.8948 H         1 <0>         0.0712
     43 H8          0.5293   -0.3651    0.8851 H         1 <0>         0.0715
     44 H9         -2.1181    0.1091    0.0229 H         1 <0>         0.3968
     45 H10        -2.8246   -4.6006    1.8429 H         1 <0>         0.1323
     46 H11        -4.7321   -5.2758   -1.3520 H         1 <0>         0.2211
     47 H12        -6.8445   -9.4501   -0.1658 H         1 <0>         0.4199
     48 H13        -7.0286  -10.3654    1.2310 H         1 <0>         0.4119
     49 H14        -3.3000   -6.7016    7.7067 H         1 <0>         0.1248
     50 H15        -2.9233   -7.0948   10.1048 H         1 <0>         0.1292
     51 H16        -5.0729  -10.7726    9.8618 H         1 <0>         0.1294
     52 H17        -5.4721  -10.3955    7.4647 H         1 <0>         0.1254
     53 H18        -3.6967  -10.2618   11.7889 H         1 <0>         0.0739
     54 H19        -2.7998   -8.7277   11.8902 H         1 <0>         0.0737
     55 H20        -4.9322   -7.5017   12.2040 H         1 <0>         0.0584
     56 H21        -5.8291   -9.0359   12.1027 H         1 <0>         0.0585
     57 H22        -6.3572   -2.5014    1.2166 H         1 <0>         0.3947
     58 H23        -4.0940   -0.0456    0.8797 H         1 <0>         0.3865
@<TRIPOS>BOND
     1    1    2 1
     2    1   39 1
     3    1   40 1
     4    1   41 1
     5    2    3 1
     6    2   42 1
     7    2   43 1
     8    3    4 am
     9    3   44 1
    10    4    5 2
    11    4    6 1
    12    6    7 1
    13    6   13 1
    14    6    8 1
    15    8    9 1
    16    8   10 1
    17    8   38 1
    18   10   11 1
    19   10   12 1
    20   10   37 1
    21   12   13 1
    22   12   14 1
    23   12   45 1
    24   14   18 1
    25   14   15 1
    26   15   16 2
    27   15   46 1
    28   16   17 1
    29   17   22 ar
    30   17   18 ar
    31   18   19 ar
    32   19   20 ar
    33   20   21 ar
    34   20   24 1
    35   21   22 ar
    36   22   23 1
    37   23   47 1
    38   23   48 1
    39   24   25 3
    40   25   26 1
    41   26   31 ar
    42   26   27 ar
    43   27   28 ar
    44   27   49 1
    45   28   29 ar
    46   28   50 1
    47   29   30 ar
    48   29   32 1
    49   30   31 ar
    50   30   51 1
    51   31   52 1
    52   32   33 1
    53   32   53 1
    54   32   54 1
    55   33   34 1
    56   33   55 1
    57   33   56 1
    58   34   35 2
    59   34   36 1
    60   37   57 1
    61   38   58 1
@<TRIPOS>MOLECULE
CHEMBL604652
   46    49     0     0     0
SMALL
USER_CHARGES

@<TRIPOS>ATOM
      1 C1          0.2603    0.8444    2.6921 C.2       1 <0>         0.0633
      2 C2          1.3505    1.5763    2.3557 C.2       1 <0>        -0.2447
      3 S1          2.3570    0.3308    1.5663 S.3       1 <0>         0.1262
      4 C3          1.3020   -0.9684    1.7446 C.2       1 <0>         0.2808
      5 N1          0.2730   -0.4353    2.3671 N.2       1 <0>        -0.5228
      6 N2          1.4758   -2.2846    1.3339 N.am      1 <0>        -0.6153
      7 C4          0.5104   -3.1960    1.5661 C.2       1 <0>         0.7275
      8 O1         -0.5121   -2.8668    2.1348 O.2       1 <0>        -0.4988
      9 N3          0.6789   -4.4725    1.1678 N.am      1 <0>        -0.5810
     10 N4          1.8575   -4.8520    0.5124 N.2       1 <0>         0.1312
     11 N5          1.9752   -6.0451    0.0361 N.2       1 <0>        -0.1566
     12 C5          0.9005   -6.8924    0.0398 C.ar      1 <0>         0.4693
     13 N6         -0.3159   -6.3891   -0.1545 N.ar      1 <0>        -0.6138
     14 C6         -1.3880   -7.1705   -0.1595 C.ar      1 <0>         0.5274
     15 C7         -1.2155   -8.5519    0.0457 C.ar      1 <0>        -0.0844
     16 C8          0.0880   -9.0391    0.2467 C.ar      1 <0>         0.3143
     17 N7          1.1067   -8.1883    0.2314 N.ar      1 <0>        -0.5036
     18 N8         -0.0373  -10.3952    0.4177 N.pl3     1 <0>        -0.4561
     19 C9         -1.3632  -10.6979    0.3215 C.2       1 <0>         0.2966
     20 N9         -2.0520   -9.6153    0.1033 N.2       1 <0>        -0.4628
     21 C10         1.0532  -11.3432    0.6592 C.3       1 <0>         0.3109
     22 C11         1.6675  -11.7884   -0.6854 C.3       1 <0>         0.0762
     23 H1          2.5968  -11.2542   -0.8831 H         1 <0>         0.1021
     24 C12         1.9391  -13.2977   -0.4399 C.3       1 <0>         0.0483
     25 H2          2.8898  -13.4476    0.0718 H         1 <0>         0.0949
     26 C13         0.7466  -13.6656    0.4783 C.3       1 <0>         0.0505
     27 H3         -0.1442  -13.8616   -0.1186 H         1 <0>         0.0996
     28 O2          0.5449  -12.5128    1.3112 O.3       1 <0>        -0.3449
     29 C14         1.0914  -14.8870    1.3328 C.3       1 <0>         0.0777
     30 O3         -0.0574  -15.2812    2.0859 O.3       1 <0>        -0.5632
     31 O4          1.8947  -14.0346   -1.6634 O.3       1 <0>        -0.5421
     32 O5          0.7388  -11.6021   -1.7553 O.3       1 <0>        -0.5365
     33 N10        -2.6493   -6.6382   -0.3618 N.pl3     1 <0>        -0.8069
     34 H4         -0.5794    1.2872    3.2071 H         1 <0>         0.1771
     35 H5          1.5541    2.6242    2.5200 H         1 <0>         0.2007
     36 H6          2.2918   -2.5474    0.8801 H         1 <0>         0.4340
     37 H7         -0.0158   -5.1285    1.3350 H         1 <0>         0.4254
     38 H8         -1.7804  -11.6899    0.4128 H         1 <0>         0.2225
     39 H9          1.8179  -10.8765    1.2801 H         1 <0>         0.1400
     40 H10         1.4006  -15.7077    0.6856 H         1 <0>         0.0647
     41 H11         1.9040  -14.6359    2.0144 H         1 <0>         0.0598
     42 H12         0.0887  -16.0515    2.6519 H         1 <0>         0.3866
     43 H13         2.0587  -14.9818   -1.5583 H         1 <0>         0.3913
     44 H14         1.0779  -11.8673   -2.6212 H         1 <0>         0.3959
     45 H15        -2.7565   -5.6844   -0.5020 H         1 <0>         0.4141
     46 H16        -3.4262   -7.2190   -0.3635 H         1 <0>         0.4246
@<TRIPOS>BOND
     1    1    5 1
     2    1    2 2
     3    1   34 1
     4    2    3 1
     5    2   35 1
     6    3    4 1
     7    4    5 2
     8    4    6 1
     9    6    7 am
    10    6   36 1
    11    7    8 2
    12    7    9 am
    13    9   10 1
    14    9   37 1
    15   10   11 2
    16   11   12 1
    17   12   17 ar
    18   12   13 ar
    19   13   14 ar
    20   14   15 ar
    21   14   33 1
    22   15   20 1
    23   15   16 ar
    24   16   17 ar
    25   16   18 1
    26   18   19 1
    27   18   21 1
    28   19   20 2
    29   19   38 1
    30   21   28 1
    31   21   22 1
    32   21   39 1
    33   22   23 1
    34   22   24 1
    35   22   32 1
    36   24   25 1
    37   24   26 1
    38   24   31 1
    39   26   27 1
    40   26   28 1
    41   26   29 1
    42   29   30 1
    43   29   40 1
    44   29   41 1
    45   30   42 1
    46   31   43 1
    47   32   44 1
    48   33   45 1
    49   33   46 1
@<TRIPOS>MOLECULE
CHEMBL260615
   33    35     0     0     0
SMALL
USER_CHARGES

@<TRIPOS>ATOM
      1 C1         -0.0167    1.3792    0.0096 C.ar      1 <0>        -0.0942
      2 C2          1.1685    2.0928    0.0021 C.ar      1 <0>        -0.1250
      3 C3          2.3774    1.4277   -0.0130 C.ar      1 <0>        -0.0639
      4 C4          2.4029    0.0333   -0.0207 C.ar      1 <0>        -0.0721
      5 C5          1.2046   -0.6805   -0.0131 C.ar      1 <0>        -0.0887
      6 C6          0.0021   -0.0041    0.0020 C.ar      1 <0>        -0.1206
      7 C7          3.6972   -0.6868   -0.0375 C.ar      1 <0>         0.3137
      8 C8          3.8455   -1.9109    0.6459 C.ar      1 <0>        -0.2121
      9 C9          5.1012   -2.5516    0.5944 C.ar      1 <0>         0.4965
     10 N1          6.0850   -1.9807   -0.0901 N.ar      1 <0>        -0.5726
     11 C10         5.9009   -0.8275   -0.7185 C.ar      1 <0>         0.4416
     12 N2          4.7373   -0.1924   -0.7018 N.ar      1 <0>        -0.5420
     13 C11         7.0319   -0.2315   -1.4686 C.ar      1 <0>        -0.0612
     14 C12         6.8680    0.9829   -2.1337 C.ar      1 <0>        -0.0611
     15 C13         7.9246    1.5329   -2.8304 C.ar      1 <0>        -0.1332
     16 C14         9.1444    0.8815   -2.8701 C.ar      1 <0>        -0.0908
     17 C15         9.3129   -0.3237   -2.2121 C.ar      1 <0>        -0.1339
     18 C16         8.2654   -0.8803   -1.5070 C.ar      1 <0>        -0.0625
     19 N3          5.3036   -3.7520    1.2452 N.pl3     1 <0>        -0.8188
     20 C17         2.7535   -2.4868    1.3715 C.1       1 <0>         0.2633
     21 N4          1.8873   -2.9437    1.9472 N.1       1 <0>        -0.4064
     22 H1         -0.9604    1.9042    0.0260 H         1 <0>         0.1289
     23 H2          1.1475    3.1726    0.0078 H         1 <0>         0.1317
     24 H3          3.3020    1.9858   -0.0192 H         1 <0>         0.1354
     25 H4          1.2180   -1.7604   -0.0194 H         1 <0>         0.1229
     26 H5         -0.9264   -0.5557    0.0079 H         1 <0>         0.1295
     27 H6          5.9160    1.4920   -2.1039 H         1 <0>         0.1397
     28 H7          7.7989    2.4735   -3.3460 H         1 <0>         0.1298
     29 H8          9.9682    1.3154   -3.4173 H         1 <0>         0.1267
     30 H9         10.2674   -0.8278   -2.2469 H         1 <0>         0.1291
     31 H10         8.3995   -1.8188   -0.9897 H         1 <0>         0.1375
     32 H11         4.5792   -4.1619    1.7434 H         1 <0>         0.4154
     33 H12         6.1704   -4.1857    1.2045 H         1 <0>         0.4171
@<TRIPOS>BOND
     1    1    6 ar
     2    1    2 ar
     3    1   22 1
     4    2    3 ar
     5    2   23 1
     6    3    4 ar
     7    3   24 1
     8    4    5 ar
     9    4    7 1
    10    5    6 ar
    11    5   25 1
    12    6   26 1
    13    7   12 ar
    14    7    8 ar
    15    8    9 ar
    16    8   20 1
    17    9   10 ar
    18    9   19 1
    19   10   11 ar
    20   11   12 ar
    21   11   13 1
    22   13   18 ar
    23   13   14 ar
    24   14   15 ar
    25   14   27 1
    26   15   16 ar
    27   15   28 1
    28   16   17 ar
    29   16   29 1
    30   17   18 ar
    31   17   30 1
    32   18   31 1
    33   19   32 1
    34   19   33 1
    35   20   21 3
@<TRIPOS>MOLECULE
CHEMBL222530
   65    71     0     0     0
SMALL
USER_CHARGES

@<TRIPOS>ATOM
      1 C1         -0.0164    1.3576    0.0095 C.ar      1 <0>        -0.1234
      2 C2          1.1696    2.0884    0.0021 C.ar      1 <0>        -0.0818
      3 C3          2.3789    1.4636   -0.0133 C.ar      1 <0>        -0.1112
      4 C4          2.4386    0.0594   -0.0214 C.ar      1 <0>         0.1658
      5 C5          1.2315   -0.6815   -0.0134 C.ar      1 <0>        -0.1301
      6 C6          0.0021   -0.0041    0.0020 C.ar      1 <0>        -0.0817
      7 C7          1.2914   -2.0893   -0.0215 C.ar      1 <0>        -0.0173
      8 C8          2.5186   -2.6829   -0.0368 C.ar      1 <0>        -0.1808
      9 C9          3.6752   -1.8942   -0.0441 C.ar      1 <0>         0.3469
     10 N1          3.6133   -0.5801   -0.0355 N.ar      1 <0>        -0.5405
     11 O1          4.8884   -2.4992   -0.0593 O.3       1 <0>        -0.3019
     12 C10         6.0372   -1.6493   -0.0662 C.3       1 <0>         0.0788
     13 C11         7.3050   -2.5055   -0.0834 C.3       1 <0>        -0.1100
     14 H1          7.2698   -3.1937   -0.9279 H         1 <0>         0.1079
     15 C12         7.4060   -3.3002    1.2231 C.3       1 <0>        -0.1302
     16 C13         8.7061   -4.1055    1.2050 C.3       1 <0>        -0.1379
     17 C14         9.9003   -3.1632    1.0187 C.3       1 <0>         0.0146
     18 H2          9.9552   -2.4728    1.8603 H         1 <0>         0.1453
     19 C15        11.1725   -4.0205    0.9733 C.3       1 <0>         0.1092
     20 N2         12.3181   -3.1661    0.6347 N.pl3     1 <0>        -0.5997
     21 C16        12.1954   -2.2936   -0.5444 C.3       1 <0>         0.0917
     22 C17        10.8970   -1.4952   -0.4081 C.3       1 <0>        -0.0205
     23 N3          9.7551   -2.4061   -0.2289 N.4       1 <0>        -0.3761
     24 C18         8.5314   -1.6026   -0.2089 C.3       1 <0>        -0.0029
     25 C19        13.4610   -3.1810    1.3895 C.2       1 <0>         0.6640
     26 N4         14.5072   -2.3615    1.0405 N.pl3     1 <0>        -0.7077
     27 C20        15.4347   -2.0050    2.0191 C.2       1 <0>         0.6316
     28 N5         15.5995   -2.9596    3.0094 N.pl3     1 <0>        -0.3831
     29 C21        14.6396   -3.9304    3.2093 C.2       1 <0>         0.4995
     30 N6         13.5309   -3.9801    2.4412 N.2       1 <0>        -0.5250
     31 N7         15.0430   -4.6799    4.2028 N.2       1 <0>        -0.4761
     32 C22        16.2318   -4.2359    4.6501 C.2       1 <0>         0.3321
     33 N8         16.6016   -3.1841    3.9386 N.2       1 <0>        -0.2430
     34 C23        17.0029   -4.8299    5.7620 C.2       1 <0>         0.0317
     35 C24        16.6370   -5.9134    6.4973 C.2       1 <0>        -0.1242
     36 C25        17.6605   -6.1273    7.4418 C.2       1 <0>        -0.2197
     37 C26        18.5909   -5.1739    7.2384 C.2       1 <0>        -0.0009
     38 O2         18.1932   -4.3955    6.2192 O.3       1 <0>        -0.1587
     39 N9         16.0870   -0.8777    2.0031 N.2       1 <0>        -0.6522
     40 H3         -0.9628    1.8777    0.0259 H         1 <0>         0.1326
     41 H4          1.1290    3.1676    0.0083 H         1 <0>         0.1338
     42 H5          3.2891    2.0448   -0.0196 H         1 <0>         0.1338
     43 H6         -0.9240   -0.5597    0.0082 H         1 <0>         0.1349
     44 H7          0.3889   -2.6824   -0.0153 H         1 <0>         0.1523
     45 H8          2.5984   -3.7600   -0.0430 H         1 <0>         0.1470
     46 H9          6.0148   -1.0154   -0.9527 H         1 <0>         0.0776
     47 H10         6.0325   -1.0248    0.8272 H         1 <0>         0.0782
     48 H11         7.4127   -2.6135    2.0695 H         1 <0>         0.0846
     49 H12         6.5567   -3.9783    1.3055 H         1 <0>         0.1066
     50 H13         8.8123   -4.6427    2.1475 H         1 <0>         0.1218
     51 H14         8.6776   -4.8208    0.3831 H         1 <0>         0.0950
     52 H15        11.3367   -4.4805    1.9477 H         1 <0>         0.1533
     53 H16        11.0614   -4.7974    0.2169 H         1 <0>         0.1053
     54 H17        13.0446   -1.6115   -0.5881 H         1 <0>         0.1237
     55 H18        12.1619   -2.8998   -1.4496 H         1 <0>         0.1141
     56 H19        10.9669   -0.8359    0.4571 H         1 <0>         0.1374
     57 H20        10.7444   -0.8965   -1.3060 H         1 <0>         0.1533
     58 H21         8.4603   -1.0231   -1.1294 H         1 <0>         0.1392
     59 H22         8.5672   -0.9219    0.6416 H         1 <0>         0.1334
     60 H23        15.7357   -6.4969    6.3806 H         1 <0>         0.1630
     61 H24        17.6930   -6.9076    8.1878 H         1 <0>         0.1611
     62 H25        19.5066   -5.0580    7.7992 H         1 <0>         0.2153
     63 H26        15.9372   -0.2407    1.2870 H         1 <0>         0.3682
     64 H27        14.5990   -2.0373    0.1309 H         1 <0>         0.4280
     65 H28         9.7150   -3.0457   -1.0083 H         1 <0>         0.4237
@<TRIPOS>BOND
     1    1    6 ar
     2    1    2 ar
     3    1   40 1
     4    2    3 ar
     5    2   41 1
     6    3    4 ar
     7    3   42 1
     8    4   10 ar
     9    4    5 ar
    10    5    6 ar
    11    5    7 ar
    12    6   43 1
    13    7    8 ar
    14    7   44 1
    15    8    9 ar
    16    8   45 1
    17    9   10 ar
    18    9   11 1
    19   11   12 1
    20   12   13 1
    21   12   46 1
    22   12   47 1
    23   13   14 1
    24   13   24 1
    25   13   15 1
    26   15   16 1
    27   15   48 1
    28   15   49 1
    29   16   17 1
    30   16   50 1
    31   16   51 1
    32   17   18 1
    33   17   23 1
    34   17   19 1
    35   19   20 1
    36   19   52 1
    37   19   53 1
    38   20   21 1
    39   20   25 1
    40   21   22 1
    41   21   54 1
    42   21   55 1
    43   22   23 1
    44   22   56 1
    45   22   57 1
    46   23   24 1
    47   23   65 1
    48   24   58 1
    49   24   59 1
    50   25   30 2
    51   25   26 1
    52   26   27 1
    53   26   64 1
    54   27   28 1
    55   27   39 2
    56   28   33 1
    57   28   29 1
    58   29   30 1
    59   29   31 2
    60   31   32 1
    61   32   33 2
    62   32   34 1
    63   34   38 1
    64   34   35 2
    65   35   36 1
    66   35   60 1
    67   36   37 2
    68   36   61 1
    69   37   38 1
    70   37   62 1
    71   39   63 1
@<TRIPOS>MOLECULE
CHEMBL446616
   66    71     0     0     0
SMALL
USER_CHARGES

@<TRIPOS>ATOM
      1 C1         -0.0164    1.3567    0.0095 C.ar      1 <0>        -0.1158
      2 C2          1.1685    2.0906    0.0021 C.ar      1 <0>        -0.1112
      3 C3          2.3785    1.4679   -0.0132 C.ar      1 <0>        -0.1073
      4 C4          2.4378    0.0637   -0.0214 C.ar      1 <0>        -0.0351
      5 C5          1.2328   -0.6827   -0.0134 C.ar      1 <0>        -0.0548
      6 C6          0.0021   -0.0041    0.0020 C.ar      1 <0>        -0.1045
      7 C7          1.2920   -2.0865   -0.0210 C.ar      1 <0>        -0.0945
      8 C8          2.5022   -2.7094   -0.0359 C.ar      1 <0>        -0.1199
      9 C9          3.6867   -1.9757   -0.0433 C.ar      1 <0>        -0.0882
     10 C10         3.6681   -0.6146   -0.0367 C.ar      1 <0>        -0.1020
     11 C11         4.9603    0.1606   -0.0459 C.3       1 <0>         0.1716
     12 N1          5.2692    0.6111    1.3134 N.pl3     1 <0>        -0.6884
     13 C12         6.4156    1.3474    1.5545 C.ar      1 <0>         0.5409
     14 C13         6.7295    1.7824    2.8541 C.ar      1 <0>        -0.1522
     15 C14         7.9058    2.5265    3.0411 C.ar      1 <0>         0.3601
     16 N2          8.6773    2.7933    1.9917 N.ar      1 <0>        -0.6052
     17 C15         8.3443    2.3649    0.7852 C.ar      1 <0>         0.6303
     18 N3          7.2458    1.6537    0.5642 N.ar      1 <0>        -0.6189
     19 N4          9.1741    2.6632   -0.2831 N.pl3     1 <0>        -0.6888
     20 C16         8.8292    2.2011   -1.6299 C.3       1 <0>         0.1606
     21 C17         9.3973    0.7863   -1.8648 C.3       1 <0>        -0.1336
     22 C18         9.8429    0.7973   -3.3481 C.3       1 <0>        -0.1251
     23 C19        10.4180    2.2250   -3.5216 C.3       1 <0>        -0.1245
     24 C20         9.4782    3.1159   -2.6833 C.3       1 <0>        -0.1334
     25 N5          7.9628    2.8143    4.3812 N.pl3     1 <0>        -0.4754
     26 C21         6.8610    2.2610    4.9655 C.2       1 <0>         0.2435
     27 N6          6.1391    1.6562    4.0680 N.2       1 <0>        -0.4501
     28 C22         9.0139    3.5761    5.0604 C.3       1 <0>         0.3169
     29 H1          9.9838    3.3695    4.6079 H         1 <0>         0.1196
     30 C23         8.7047    5.0885    5.0025 C.3       1 <0>         0.0801
     31 H2          7.6352    5.2551    4.8742 H         1 <0>         0.0849
     32 C24         9.1747    5.6205    6.3748 C.3       1 <0>         0.0469
     33 H3          8.3375    6.0501    6.9250 H         1 <0>         0.0861
     34 C25         9.7122    4.3666    7.0995 C.3       1 <0>         0.0506
     35 H4         10.7901    4.2815    6.9616 H         1 <0>         0.0988
     36 O1          9.0374    3.2554    6.4684 O.3       1 <0>        -0.3465
     37 C26         9.3699    4.4248    8.5896 C.3       1 <0>         0.0822
     38 O2          9.9743    3.3175    9.2608 O.3       1 <0>        -0.5633
     39 O3         10.2122    6.5890    6.2079 O.3       1 <0>        -0.5393
     40 O4          9.4374    5.7092    3.9442 O.3       1 <0>        -0.5253
     41 H5         -0.9634    1.8756    0.0259 H         1 <0>         0.1236
     42 H6          1.1258    3.1698    0.0084 H         1 <0>         0.1225
     43 H7          3.2883    2.0497   -0.0195 H         1 <0>         0.1267
     44 H8         -0.9241   -0.5595    0.0082 H         1 <0>         0.1277
     45 H9          0.3820   -2.6682   -0.0147 H         1 <0>         0.1287
     46 H10         2.5450   -3.7886   -0.0417 H         1 <0>         0.1264
     47 H11         4.6338   -2.4947   -0.0548 H         1 <0>         0.1260
     48 H12         5.7651   -0.4789   -0.4084 H         1 <0>         0.0799
     49 H13         4.8604    1.0257   -0.7015 H         1 <0>         0.0795
     50 H14         4.6700    0.3932    2.0445 H         1 <0>         0.4200
     51 H15         9.9835    3.1781   -0.1395 H         1 <0>         0.4127
     52 H16         7.7466    2.1953   -1.7565 H         1 <0>         0.0947
     53 H17        10.2507    0.6045   -1.2114 H         1 <0>         0.0677
     54 H18         8.6254    0.0337   -1.7039 H         1 <0>         0.0704
     55 H19        10.6129    0.0465   -3.5258 H         1 <0>         0.0672
     56 H20         8.9901    0.6415   -4.0088 H         1 <0>         0.0691
     57 H21        11.4362    2.2756   -3.1359 H         1 <0>         0.0664
     58 H22        10.3910    2.5224   -4.5699 H         1 <0>         0.0677
     59 H23         8.7106    3.5534   -3.3217 H         1 <0>         0.0752
     60 H24        10.0498    3.9036   -2.1925 H         1 <0>         0.0714
     61 H25         6.6237    2.3161    6.0177 H         1 <0>         0.2180
     62 H26         9.7468    5.3559    9.0129 H         1 <0>         0.0661
     63 H27         8.2882    4.3799    8.7159 H         1 <0>         0.0609
     64 H28         9.7989    3.2904   10.2114 H         1 <0>         0.3863
     65 H29        10.5447    6.9563    7.0383 H         1 <0>         0.3865
     66 H30         9.2808    6.6599    3.8623 H         1 <0>         0.3888
@<TRIPOS>BOND
     1    1    6 ar
     2    1    2 ar
     3    1   41 1
     4    2    3 ar
     5    2   42 1
     6    3    4 ar
     7    3   43 1
     8    4   10 ar
     9    4    5 ar
    10    5    6 ar
    11    5    7 ar
    12    6   44 1
    13    7    8 ar
    14    7   45 1
    15    8    9 ar
    16    8   46 1
    17    9   10 ar
    18    9   47 1
    19   10   11 1
    20   11   12 1
    21   11   48 1
    22   11   49 1
    23   12   13 1
    24   12   50 1
    25   13   18 ar
    26   13   14 ar
    27   14   27 1
    28   14   15 ar
    29   15   16 ar
    30   15   25 1
    31   16   17 ar
    32   17   18 ar
    33   17   19 1
    34   19   20 1
    35   19   51 1
    36   20   24 1
    37   20   21 1
    38   20   52 1
    39   21   22 1
    40   21   53 1
    41   21   54 1
    42   22   23 1
    43   22   55 1
    44   22   56 1
    45   23   24 1
    46   23   57 1
    47   23   58 1
    48   24   59 1
    49   24   60 1
    50   25   26 1
    51   25   28 1
    52   26   27 2
    53   26   61 1
    54   28   29 1
    55   28   36 1
    56   28   30 1
    57   30   31 1
    58   30   32 1
    59   30   40 1
    60   32   33 1
    61   32   34 1
    62   32   39 1
    63   34   35 1
    64   34   36 1
    65   34   37 1
    66   37   38 1
    67   37   62 1
    68   37   63 1
    69   38   64 1
    70   39   65 1
    71   40   66 1
@<TRIPOS>MOLECULE
CHEMBL511159
   60    63     0     0     0
SMALL
USER_CHARGES

@<TRIPOS>ATOM
      1 C1          0.1445    1.7042   -0.8789 C.3       1 <0>        -0.0744
      2 C2          0.1353    0.2133   -0.6593 C.2       1 <0>         0.0958
      3 C3          0.0156   -0.7610   -1.6575 C.2       1 <0>        -0.2621
      4 C4          0.0501   -1.9747   -1.0622 C.2       1 <0>         0.1228
      5 N1          0.1877   -1.7730    0.2749 N.pl3     1 <0>        -0.3218
      6 N2          0.2435   -0.3907    0.4956 N.2       1 <0>        -0.2663
      7 C5          0.2642   -2.7653    1.2523 C.ar      1 <0>         0.6058
      8 N3          0.2364   -2.4154    2.5268 N.ar      1 <0>        -0.5273
      9 C6          0.3072   -3.3349    3.4886 C.ar      1 <0>         0.2616
     10 C7          0.4117   -4.6787    3.1333 C.ar      1 <0>        -0.2744
     11 C8          0.4377   -5.0047    1.7793 C.ar      1 <0>         0.4436
     12 N4          0.3572   -4.0308    0.8782 N.ar      1 <0>        -0.5302
     13 N5          0.5409   -6.3316    1.3757 N.am      1 <0>        -0.6545
     14 C9          0.6778   -6.6297    0.0685 C.2       1 <0>         0.5016
     15 O1          0.6176   -5.7496   -0.7636 O.2       1 <0>        -0.4655
     16 C10         0.9058   -8.0566   -0.3592 C.3       1 <0>        -0.1692
     17 C11         0.2758   -2.9343    4.9165 C.ar      1 <0>        -0.0119
     18 C12         0.3562   -3.9026    5.9162 C.ar      1 <0>        -0.1159
     19 C13         0.3268   -3.5274    7.2440 C.ar      1 <0>        -0.0823
     20 C14         0.2177   -2.1924    7.5868 C.ar      1 <0>        -0.1933
     21 C15         0.1367   -1.2221    6.5978 C.ar      1 <0>         0.1124
     22 C16         0.1718   -1.5892    5.2624 C.ar      1 <0>        -0.0918
     23 O2          0.0287    0.0889    6.9394 O.3       1 <0>        -0.2950
     24 C17         0.1304    0.4078    8.3286 C.3       1 <0>         0.0750
     25 C18        -1.2414    0.2530    8.9914 C.3       1 <0>        -0.1795
     26 C19        -1.1426    0.6721   10.4597 C.3       1 <0>        -0.0022
     27 N6         -0.7119    2.0727   10.5446 N.4       1 <0>        -0.3878
     28 C20         0.6335    2.2154    9.9753 C.3       1 <0>        -0.0012
     29 C21         0.6031    1.8557    8.4883 C.3       1 <0>        -0.1460
     30 C22        -0.6936    2.4935   11.9519 C.3       1 <0>        -0.0475
     31 C23        -0.0474   -3.3092   -1.7556 C.3       1 <0>        -0.0918
     32 H1          1.1686    2.0416   -1.0387 H         1 <0>         0.0827
     33 H2         -0.4585    1.9463   -1.7540 H         1 <0>         0.0840
     34 H3         -0.2699    2.2031   -0.0028 H         1 <0>         0.0753
     35 H4         -0.0867   -0.5758   -2.7166 H         1 <0>         0.1605
     36 H5          0.4713   -5.4480    3.8890 H         1 <0>         0.1582
     37 H6          0.5143   -7.0426    2.0350 H         1 <0>         0.4257
     38 H7          0.9300   -8.7001    0.5203 H         1 <0>         0.0801
     39 H8          0.0969   -8.3721   -1.0181 H         1 <0>         0.1041
     40 H9          1.8555   -8.1298   -0.8891 H         1 <0>         0.1041
     41 H10         0.4412   -4.9463    5.6516 H         1 <0>         0.1363
     42 H11         0.3888   -4.2786    8.0174 H         1 <0>         0.1365
     43 H12         0.1951   -1.9038    8.6273 H         1 <0>         0.1279
     44 H13         0.1140   -0.8349    4.4917 H         1 <0>         0.1510
     45 H14         0.8447   -0.2635    8.8053 H         1 <0>         0.0911
     46 H15        -1.9663    0.8864    8.4800 H         1 <0>         0.1028
     47 H16        -1.5597   -0.7877    8.9305 H         1 <0>         0.1187
     48 H17        -2.1176    0.5629   10.9347 H         1 <0>         0.1376
     49 H18        -0.4178    0.0380   10.9701 H         1 <0>         0.1309
     50 H19         0.9698    3.2456   10.0926 H         1 <0>         0.1408
     51 H20         1.3205    1.5484   10.4961 H         1 <0>         0.1319
     52 H21         1.6033    1.9605    8.0679 H         1 <0>         0.1233
     53 H22        -0.0835    2.5224    7.9665 H         1 <0>         0.1023
     54 H23         0.0003    1.8649   12.5101 H         1 <0>         0.1225
     55 H24        -0.3738    3.5335   12.0161 H         1 <0>         0.1260
     56 H25        -1.6937    2.3941   12.3738 H         1 <0>         0.1254
     57 H26         0.9489   -3.6392   -2.0500 H         1 <0>         0.0849
     58 H27        -0.4864   -4.0402   -1.0767 H         1 <0>         0.1073
     59 H28        -0.6750   -3.2133   -2.6416 H         1 <0>         0.0736
     60 H29        -1.3569    2.6537   10.0303 H         1 <0>         0.4275
@<TRIPOS>BOND
     1    1    2 1
     2    1   32 1
     3    1   33 1
     4    1   34 1
     5    2    6 2
     6    2    3 1
     7    3    4 2
     8    3   35 1
     9    4    5 1
    10    4   31 1
    11    5    6 1
    12    5    7 1
    13    7   12 ar
    14    7    8 ar
    15    8    9 ar
    16    9   10 ar
    17    9   17 1
    18   10   11 ar
    19   10   36 1
    20   11   12 ar
    21   11   13 1
    22   13   14 am
    23   13   37 1
    24   14   15 2
    25   14   16 1
    26   16   38 1
    27   16   39 1
    28   16   40 1
    29   17   22 ar
    30   17   18 ar
    31   18   19 ar
    32   18   41 1
    33   19   20 ar
    34   19   42 1
    35   20   21 ar
    36   20   43 1
    37   21   22 ar
    38   21   23 1
    39   22   44 1
    40   23   24 1
    41   24   29 1
    42   24   25 1
    43   24   45 1
    44   25   26 1
    45   25   46 1
    46   25   47 1
    47   26   27 1
    48   26   48 1
    49   26   49 1
    50   27   28 1
    51   27   30 1
    52   27   60 1
    53   28   29 1
    54   28   50 1
    55   28   51 1
    56   29   52 1
    57   29   53 1
    58   30   54 1
    59   30   55 1
    60   30   56 1
    61   31   57 1
    62   31   58 1
    63   31   59 1
@<TRIPOS>MOLECULE
CHEMBL175664
   61    66     0     0     0
SMALL
USER_CHARGES

@<TRIPOS>ATOM
      1 C1         -0.0167    1.3781    0.0096 C.ar      1 <0>        -0.1101
      2 C2          1.1709    2.0855    0.0021 C.ar      1 <0>        -0.1128
      3 C3          2.3773    1.4107   -0.0130 C.ar      1 <0>        -0.1098
      4 C4          2.3960    0.0285   -0.0201 C.ar      1 <0>        -0.0968
      5 C5          1.2084   -0.6789   -0.0117 C.ar      1 <0>        -0.1165
      6 C6          0.0021   -0.0041    0.0020 C.ar      1 <0>        -0.1147
      7 C7          3.7112   -0.7071   -0.0376 C.3       1 <0>        -0.0536
      8 C8          3.7885   -1.5882   -1.2877 C.3       1 <0>        -0.1397
      9 C9          5.0904   -2.3918   -1.2589 C.3       1 <0>        -0.0061
     10 N1          5.1211   -3.2377   -0.0597 N.4       1 <0>        -0.3827
     11 C10         5.1196   -2.3966    1.1432 C.3       1 <0>        -0.0124
     12 C11         3.8189   -1.5931    1.2068 C.3       1 <0>        -0.1381
     13 C12         6.3355   -4.0641   -0.0761 C.3       1 <0>         0.0450
     14 C13         6.3087   -5.0196    1.0889 C.ar      1 <0>        -0.1652
     15 C14         6.8534   -4.6427    2.3037 C.ar      1 <0>        -0.0826
     16 C15         6.8320   -5.5141    3.3776 C.ar      1 <0>        -0.1120
     17 C16         6.2669   -6.7660    3.2429 C.ar      1 <0>        -0.0593
     18 C17         5.7165   -7.1514    2.0213 C.ar      1 <0>        -0.0365
     19 C18         5.7359   -6.2663    0.9437 C.ar      1 <0>        -0.0509
     20 C19         5.1083   -8.4944    1.8701 C.2       1 <0>         0.2297
     21 C20         5.0814   -9.3651    2.9446 C.2       1 <0>        -0.2023
     22 C21         4.4960  -10.6315    2.7660 C.2       1 <0>         0.3486
     23 N2          4.3104  -11.6730    3.5619 N.2       1 <0>        -0.5143
     24 C22         3.6915  -12.6474    2.8876 C.2       1 <0>         0.3630
     25 N3          3.4690  -12.2491    1.6478 N.2       1 <0>        -0.3135
     26 N4          3.9776  -10.9488    1.5363 N.pl3     1 <0>        -0.3619
     27 C23         4.0364  -10.0447    0.5194 C.2       1 <0>         0.6609
     28 N5          4.5795   -8.8615    0.6924 N.2       1 <0>        -0.5605
     29 N6          3.5131  -10.3747   -0.7090 N.pl3     1 <0>        -0.8041
     30 C24         3.3154  -13.9647    3.4424 C.2       1 <0>         0.0242
     31 C25         3.5333  -14.3853    4.7166 C.2       1 <0>        -0.1190
     32 C26         3.0177  -15.6935    4.8059 C.2       1 <0>        -0.2195
     33 C27         2.5157  -16.0035    3.5943 C.2       1 <0>         0.0006
     34 O1          2.6921  -14.9548    2.7748 O.3       1 <0>        -0.1604
     35 H1         -0.9591    1.9053    0.0259 H         1 <0>         0.1274
     36 H2          1.1563    3.1654    0.0076 H         1 <0>         0.1278
     37 H3          3.3051    1.9634   -0.0196 H         1 <0>         0.1237
     38 H4          1.2231   -1.7588   -0.0176 H         1 <0>         0.1174
     39 H5         -0.9258   -0.5567    0.0082 H         1 <0>         0.1259
     40 H6          4.5307    0.0115   -0.0454 H         1 <0>         0.0959
     41 H7          2.9394   -2.2714   -1.3046 H         1 <0>         0.0895
     42 H8          3.7685   -0.9595   -2.1779 H         1 <0>         0.1144
     43 H9          5.1488   -3.0201   -2.1477 H         1 <0>         0.1324
     44 H10         5.9388   -1.7078   -1.2423 H         1 <0>         0.1305
     45 H11         5.1996   -3.0283    2.0278 H         1 <0>         0.1327
     46 H12         5.9674   -1.7124    1.1086 H         1 <0>         0.1297
     47 H13         3.8205   -0.9680    2.0997 H         1 <0>         0.1134
     48 H14         2.9704   -2.2764    1.2417 H         1 <0>         0.0889
     49 H15         6.3785   -4.6282   -1.0078 H         1 <0>         0.1384
     50 H16         7.2130   -3.4220    0.0007 H         1 <0>         0.1375
     51 H17         7.2973   -3.6643    2.4137 H         1 <0>         0.1352
     52 H18         7.2587   -5.2144    4.3234 H         1 <0>         0.1439
     53 H19         6.2515   -7.4459    4.0819 H         1 <0>         0.1448
     54 H20         5.3073   -6.5579   -0.0038 H         1 <0>         0.1447
     55 H21         5.5004   -9.0793    3.8981 H         1 <0>         0.1679
     56 H22         3.1066  -11.2448   -0.8451 H         1 <0>         0.4281
     57 H23         3.5504   -9.7372   -1.4391 H         1 <0>         0.4290
     58 H24         4.0095  -13.8250    5.5075 H         1 <0>         0.1638
     59 H25         3.0238  -16.3278    5.6799 H         1 <0>         0.1622
     60 H26         2.0458  -16.9387    3.3280 H         1 <0>         0.2161
     61 H27         4.3092   -3.8367   -0.0510 H         1 <0>         0.4221
@<TRIPOS>BOND
     1    1    6 ar
     2    1    2 ar
     3    1   35 1
     4    2    3 ar
     5    2   36 1
     6    3    4 ar
     7    3   37 1
     8    4    5 ar
     9    4    7 1
    10    5    6 ar
    11    5   38 1
    12    6   39 1
    13    7   12 1
    14    7    8 1
    15    7   40 1
    16    8    9 1
    17    8   41 1
    18    8   42 1
    19    9   10 1
    20    9   43 1
    21    9   44 1
    22   10   11 1
    23   10   13 1
    24   10   61 1
    25   11   12 1
    26   11   45 1
    27   11   46 1
    28   12   47 1
    29   12   48 1
    30   13   14 1
    31   13   49 1
    32   13   50 1
    33   14   19 ar
    34   14   15 ar
    35   15   16 ar
    36   15   51 1
    37   16   17 ar
    38   16   52 1
    39   17   18 ar
    40   17   53 1
    41   18   19 ar
    42   18   20 1
    43   19   54 1
    44   20   28 1
    45   20   21 2
    46   21   22 1
    47   21   55 1
    48   22   26 1
    49   22   23 2
    50   23   24 1
    51   24   25 2
    52   24   30 1
    53   25   26 1
    54   26   27 1
    55   27   28 2
    56   27   29 1
    57   29   56 1
    58   29   57 1
    59   30   34 1
    60   30   31 2
    61   31   32 1
    62   31   58 1
    63   32   33 2
    64   32   59 1
    65   33   34 1
    66   33   60 1
@<TRIPOS>MOLECULE
CHEMBL1221457
   37    40     0     0     0
SMALL
USER_CHARGES

@<TRIPOS>ATOM
      1 C1         -0.2215    1.4890    0.0280 C.3       1 <0>        -0.0722
      2 C2         -0.0491   -0.0079    0.0071 C.2       1 <0>         0.2566
      3 N1         -0.1314   -0.7795   -1.0770 N.2       1 <0>        -0.5407
      4 C3          0.0702   -2.0417   -0.7472 C.2       1 <0>         0.3969
      5 O1          0.2886   -2.0920    0.5811 O.3       1 <0>        -0.0884
      6 N2          0.2098   -0.7527    1.0452 N.2       1 <0>        -0.3449
      7 C4          0.0581   -3.1839   -1.6624 C.2       1 <0>        -0.2625
      8 C5          0.1470   -4.5513   -1.3850 C.2       1 <0>         0.2242
      9 N3          0.1078   -5.3552   -2.4314 N.2       1 <0>        -0.5476
     10 C6         -0.0081   -4.8851   -3.6552 C.2       1 <0>         0.2545
     11 S1         -0.0820   -3.2180   -3.4420 S.3       1 <0>         0.3626
     12 N4         -0.0625   -5.5976   -4.8421 N.am      1 <0>        -0.6028
     13 C7         -0.1835   -4.9448   -6.0150 C.2       1 <0>         0.5459
     14 O2         -0.2449   -3.7337   -6.0314 O.2       1 <0>        -0.4919
     15 C8         -0.2427   -5.7198   -7.3061 C.3       1 <0>        -0.1962
     16 C9          0.9481   -5.5970   -8.2589 C.3       1 <0>        -0.1460
     17 C10        -0.3804   -4.9211   -8.6038 C.3       1 <0>        -0.1388
     18 C11         0.2775   -5.0662   -0.0027 C.ar      1 <0>        -0.0445
     19 C12        -0.5449   -4.5713    1.0095 C.ar      1 <0>        -0.0750
     20 C13        -0.4185   -5.0550    2.2955 C.ar      1 <0>        -0.1158
     21 C14         0.5216   -6.0288    2.5821 C.ar      1 <0>        -0.1006
     22 C15         1.3406   -6.5232    1.5826 C.ar      1 <0>        -0.1243
     23 C16         1.2195   -6.0521    0.2914 C.ar      1 <0>        -0.0755
     24 H1          0.7442    1.9683   -0.1328 H         1 <0>         0.0973
     25 H2         -0.9108    1.7865   -0.7623 H         1 <0>         0.0979
     26 H3         -0.6226    1.7951    0.9942 H         1 <0>         0.0921
     27 H4         -0.0134   -6.5663   -4.8290 H         1 <0>         0.4312
     28 H5         -0.7476   -6.6843   -7.2528 H         1 <0>         0.1371
     29 H6          1.7743   -4.9557   -7.9519 H         1 <0>         0.1043
     30 H7          1.2269   -6.4810   -8.8326 H         1 <0>         0.1133
     31 H8         -0.9757   -5.3603   -9.4043 H         1 <0>         0.1120
     32 H9         -0.4283   -3.8351   -8.5237 H         1 <0>         0.1133
     33 H10        -1.2789   -3.8109    0.7872 H         1 <0>         0.1188
     34 H11        -1.0544   -4.6725    3.0802 H         1 <0>         0.1282
     35 H12         0.6169   -6.4042    3.5902 H         1 <0>         0.1266
     36 H13         2.0728   -7.2831    1.8125 H         1 <0>         0.1281
     37 H14         1.8558   -6.4425   -0.4890 H         1 <0>         0.1268
@<TRIPOS>BOND
     1    1    2 1
     2    1   24 1
     3    1   25 1
     4    1   26 1
     5    2    6 2
     6    2    3 1
     7    3    4 2
     8    4    5 1
     9    4    7 1
    10    5    6 1
    11    7   11 1
    12    7    8 2
    13    8    9 1
    14    8   18 1
    15    9   10 2
    16   10   11 1
    17   10   12 1
    18   12   13 am
    19   12   27 1
    20   13   14 2
    21   13   15 1
    22   15   17 1
    23   15   16 1
    24   15   28 1
    25   16   17 1
    26   16   29 1
    27   16   30 1
    28   17   31 1
    29   17   32 1
    30   18   23 ar
    31   18   19 ar
    32   19   20 ar
    33   19   33 1
    34   20   21 ar
    35   20   34 1
    36   21   22 ar
    37   21   35 1
    38   22   23 ar
    39   22   36 1
    40   23   37 1
@<TRIPOS>MOLECULE
CHEMBL177539
   56    61     0     0     0
SMALL
USER_CHARGES

@<TRIPOS>ATOM
      1 C1         -1.1298    0.2392    0.0503 C.ar      1 <0>        -0.1247
      2 C2         -0.1209    1.1916    0.0611 C.ar      1 <0>        -0.0615
      3 C3          1.2044    0.8127    0.0459 C.ar      1 <0>        -0.1136
      4 C4          1.5371   -0.5360    0.0198 C.ar      1 <0>         0.0775
      5 C5          0.5109   -1.4955    0.0095 C.ar      1 <0>        -0.1541
      6 C6         -0.8237   -1.0932    0.0247 C.ar      1 <0>        -0.0573
      7 C7          1.1907   -2.7962   -0.0180 C.2       1 <0>        -0.1151
      8 C8          2.5042   -2.5312   -0.0217 C.2       1 <0>        -0.0720
      9 O1          2.7087   -1.2025    0.0005 O.3       1 <0>        -0.1874
     10 C9          3.5941   -3.5716   -0.0472 C.3       1 <0>         0.0737
     11 N1          3.9393   -3.8851   -1.4402 N.4       1 <0>        -0.3860
     12 C10         2.7843   -4.5226   -2.1076 C.3       1 <0>        -0.0144
     13 C11         3.4080   -5.5746   -3.0584 C.3       1 <0>        -0.1391
     14 C12         4.6030   -6.0906   -2.2142 C.3       1 <0>        -0.1440
     15 C13         5.0759   -4.8238   -1.4705 C.3       1 <0>         0.0090
     16 H1          5.9147   -4.3735   -2.0015 H         1 <0>         0.1561
     17 C14         5.4923   -5.1833   -0.0428 C.3       1 <0>         0.1020
     18 N2          6.6617   -6.0648   -0.0825 N.pl3     1 <0>        -0.6668
     19 C15         7.1571   -6.6065    1.0854 C.2       1 <0>         0.6652
     20 N3          8.2274   -7.4044    1.0358 N.pl3     1 <0>        -0.5982
     21 C16         8.7226   -7.9365    2.1385 C.cat     1 <0>         0.7705
     22 N4          8.1306   -7.6648    3.3375 N.pl3     1 <0>        -0.4015
     23 C17         7.0330   -6.8450    3.3777 C.2       1 <0>         0.5317
     24 N5          6.5668   -6.3220    2.2346 N.2       1 <0>        -0.5002
     25 N6          6.6569   -6.7451    4.6420 N.2       1 <0>        -0.4510
     26 C18         7.4748   -7.4721    5.4138 C.2       1 <0>         0.4194
     27 N7          8.3888   -8.0502    4.6577 N.2       1 <0>        -0.2808
     28 C19         7.3704   -7.6056    6.8818 C.2       1 <0>        -0.0169
     29 C20         6.4312   -7.0202    7.6715 C.2       1 <0>        -0.0819
     30 C21         6.7088   -7.4170    8.9945 C.2       1 <0>        -0.2228
     31 C22         7.7925   -8.2167    8.9477 C.2       1 <0>         0.0366
     32 O2          8.1860   -8.3330    7.6694 O.3       1 <0>        -0.1574
     33 N8          9.8205   -8.7544    2.0791 N.pl3     1 <0>        -0.7349
     34 H2         -2.1633    0.5522    0.0667 H         1 <0>         0.1426
     35 H3         -0.3766    2.2407    0.0814 H         1 <0>         0.1484
     36 H4          1.9819    1.5622    0.0538 H         1 <0>         0.1410
     37 H5         -1.6126   -1.8308    0.0160 H         1 <0>         0.1368
     38 H6          0.7256   -3.7708   -0.0322 H         1 <0>         0.1678
     39 H7          4.4748   -3.1878    0.4678 H         1 <0>         0.1530
     40 H8          3.2456   -4.4752    0.4530 H         1 <0>         0.1617
     41 H9          2.1422   -5.0085   -1.3730 H         1 <0>         0.1373
     42 H10         2.2199   -3.7840   -2.6769 H         1 <0>         0.1432
     43 H11         2.7023   -6.3783   -3.2682 H         1 <0>         0.1252
     44 H12         3.7540   -5.1099   -3.9817 H         1 <0>         0.1056
     45 H13         4.2748   -6.8526   -1.5072 H         1 <0>         0.1057
     46 H14         5.3925   -6.4762   -2.8592 H         1 <0>         0.1188
     47 H15         5.7416   -4.2733    0.5030 H         1 <0>         0.1169
     48 H16         4.6695   -5.6935    0.4580 H         1 <0>         0.1201
     49 H17         7.0877   -6.2675   -0.9301 H         1 <0>         0.4346
     50 H18         5.6278   -6.3753    7.3472 H         1 <0>         0.1699
     51 H19         6.1575   -7.1336    9.8789 H         1 <0>         0.1711
     52 H20         8.2634   -8.6892    9.7970 H         1 <0>         0.2258
     53 H21        10.2376   -8.9448    1.2243 H         1 <0>         0.4505
     54 H22        10.1805   -9.1428    2.8917 H         1 <0>         0.4640
     55 H23         4.1859   -3.0374   -1.9288 H         1 <0>         0.4385
     56 H24         8.6448   -7.5951    0.1813 H         1 <0>         0.4615
@<TRIPOS>BOND
     1    1    6 ar
     2    1    2 ar
     3    1   34 1
     4    2    3 ar
     5    2   35 1
     6    3    4 ar
     7    3   36 1
     8    4    9 1
     9    4    5 ar
    10    5    6 ar
    11    5    7 1
    12    6   37 1
    13    7    8 2
    14    7   38 1
    15    8    9 1
    16    8   10 1
    17   10   11 1
    18   10   39 1
    19   10   40 1
    20   11   15 1
    21   11   12 1
    22   11   55 1
    23   12   13 1
    24   12   41 1
    25   12   42 1
    26   13   14 1
    27   13   43 1
    28   13   44 1
    29   14   15 1
    30   14   45 1
    31   14   46 1
    32   15   16 1
    33   15   17 1
    34   17   18 1
    35   17   47 1
    36   17   48 1
    37   18   19 1
    38   18   49 1
    39   19   24 2
    40   19   20 1
    41   20   21 2
    42   20   56 1
    43   21   22 1
    44   21   33 1
    45   22   27 1
    46   22   23 1
    47   23   24 1
    48   23   25 2
    49   25   26 1
    50   26   27 2
    51   26   28 1
    52   28   32 1
    53   28   29 2
    54   29   30 1
    55   29   50 1
    56   30   31 2
    57   30   51 1
    58   31   32 1
    59   31   52 1
    60   33   53 1
    61   33   54 1
@<TRIPOS>MOLECULE
CHEMBL222767
   64    70     0     0     0
SMALL
USER_CHARGES

@<TRIPOS>ATOM
      1 C1         -0.0164    1.3592    0.0095 C.ar      1 <0>        -0.1194
      2 C2          1.1683    2.0908    0.0021 C.ar      1 <0>        -0.0649
      3 C3          2.3798    1.4666   -0.0133 C.ar      1 <0>        -0.1053
      4 C4          2.4365    0.0660   -0.0213 C.ar      1 <0>         0.1811
      5 C5          1.2300   -0.6768   -0.0133 C.ar      1 <0>        -0.1627
      6 C6          0.0021   -0.0041    0.0020 C.ar      1 <0>        -0.0673
      7 C7          1.3141   -2.0881   -0.0212 C.ar      1 <0>         0.3996
      8 N1          2.5162   -2.6435   -0.0357 N.ar      1 <0>        -0.5941
      9 C8          3.6178   -1.9094   -0.0427 C.ar      1 <0>         0.3350
     10 N2          3.6011   -0.5978   -0.0360 N.ar      1 <0>        -0.5152
     11 O1          0.1968   -2.8506   -0.0138 O.3       1 <0>        -0.2827
     12 C9          0.3785   -4.2680   -0.0227 C.3       1 <0>         0.0564
     13 C10        -0.9874   -4.9573   -0.0123 C.3       1 <0>        -0.1137
     14 H1         -1.5705   -4.6004    0.8366 H         1 <0>         0.1348
     15 C11        -1.7312   -4.6435   -1.3149 C.3       1 <0>        -0.1290
     16 C12        -0.9189   -5.1975   -2.4863 C.3       1 <0>        -0.1439
     17 C13        -0.7019   -6.7036   -2.3039 C.3       1 <0>         0.0160
     18 H2         -1.6651   -7.2138   -2.3040 H         1 <0>         0.1485
     19 C14         0.1441   -7.2026   -3.4833 C.3       1 <0>         0.1090
     20 N3          0.5064   -8.6077   -3.2568 N.pl3     1 <0>        -0.5970
     21 C15         1.1042   -8.9589   -1.9583 C.3       1 <0>         0.0884
     22 C16         0.1958   -8.4094   -0.8562 C.3       1 <0>        -0.0210
     23 N4         -0.0086   -6.9634   -1.0379 N.4       1 <0>        -0.3848
     24 C17        -0.7972   -6.4697    0.0964 C.3       1 <0>         0.0020
     25 C18         0.2951   -9.5584   -4.2200 C.2       1 <0>         0.6719
     26 N5          0.6438  -10.8626   -3.9644 N.pl3     1 <0>        -0.6593
     27 C19         0.0173  -11.8777   -4.6870 C.2       1 <0>         0.6288
     28 N6         -0.3744  -11.4994   -5.9607 N.pl3     1 <0>        -0.4289
     29 C20        -0.5058  -10.1642   -6.2825 C.2       1 <0>         0.4991
     30 N7         -0.2450   -9.2013   -5.3733 N.2       1 <0>        -0.5260
     31 N8         -0.8949  -10.0994   -7.5298 N.2       1 <0>        -0.4815
     32 C21        -1.0140  -11.3423   -8.0313 C.2       1 <0>         0.3441
     33 N9         -0.7002  -12.2230   -7.0958 N.2       1 <0>        -0.2733
     34 C22        -1.4304  -11.6716   -9.4103 C.2       1 <0>         0.0280
     35 C23        -1.7502  -10.7765  -10.3825 C.2       1 <0>        -0.1214
     36 C24        -2.0852  -11.5245  -11.5286 C.2       1 <0>        -0.2193
     37 C25        -1.9547  -12.8256  -11.2029 C.2       1 <0>         0.0001
     38 O2         -1.5534  -12.9106   -9.9244 O.3       1 <0>        -0.1601
     39 N10        -0.1808  -13.0728   -4.2081 N.2       1 <0>        -0.6687
     40 H3         -0.9630    1.8788    0.0259 H         1 <0>         0.1381
     41 H4          1.1266    3.1700    0.0083 H         1 <0>         0.1419
     42 H5          3.2903    2.0474   -0.0196 H         1 <0>         0.1481
     43 H6         -0.9233   -0.5608    0.0082 H         1 <0>         0.1384
     44 H7          4.5731   -2.4130   -0.0546 H         1 <0>         0.2021
     45 H8          0.9253   -4.5585   -0.9197 H         1 <0>         0.0666
     46 H9          0.9433   -4.5674    0.8602 H         1 <0>         0.0855
     47 H10        -2.7146   -5.1133   -1.2970 H         1 <0>         0.0913
     48 H11        -1.8402   -3.5644   -1.4231 H         1 <0>         0.1056
     49 H12        -1.4576   -5.0194   -3.4169 H         1 <0>         0.1233
     50 H13         0.0474   -4.6947   -2.5267 H         1 <0>         0.0919
     51 H14        -0.4312   -7.1189   -4.4053 H         1 <0>         0.1541
     52 H15         1.0497   -6.6011   -3.5622 H         1 <0>         0.1047
     53 H16         1.1791  -10.0425   -1.8680 H         1 <0>         0.1290
     54 H17         2.0951   -8.5122   -1.8759 H         1 <0>         0.1150
     55 H18        -0.7693   -8.9144   -0.8976 H         1 <0>         0.1398
     56 H19         0.6556   -8.5902    0.1154 H         1 <0>         0.1545
     57 H20        -0.2833   -6.7028    1.0290 H         1 <0>         0.1407
     58 H21        -1.7720   -6.9573    0.0925 H         1 <0>         0.1416
     59 H22        -1.7484   -9.7002  -10.2932 H         1 <0>         0.1634
     60 H23        -2.3893  -11.1297  -12.4867 H         1 <0>         0.1618
     61 H24        -2.1380  -13.6611  -11.8623 H         1 <0>         0.2159
     62 H25        -0.6216  -13.7456   -4.7502 H         1 <0>         0.3849
     63 H26         1.3129  -11.0732   -3.2945 H         1 <0>         0.4371
     64 H27         0.8874   -6.4994   -1.0432 H         1 <0>         0.4212
@<TRIPOS>BOND
     1    1    6 ar
     2    1    2 ar
     3    1   40 1
     4    2    3 ar
     5    2   41 1
     6    3    4 ar
     7    3   42 1
     8    4   10 ar
     9    4    5 ar
    10    5    6 ar
    11    5    7 ar
    12    6   43 1
    13    7    8 ar
    14    7   11 1
    15    8    9 ar
    16    9   10 ar
    17    9   44 1
    18   11   12 1
    19   12   13 1
    20   12   45 1
    21   12   46 1
    22   13   14 1
    23   13   24 1
    24   13   15 1
    25   15   16 1
    26   15   47 1
    27   15   48 1
    28   16   17 1
    29   16   49 1
    30   16   50 1
    31   17   18 1
    32   17   23 1
    33   17   19 1
    34   19   20 1
    35   19   51 1
    36   19   52 1
    37   20   21 1
    38   20   25 1
    39   21   22 1
    40   21   53 1
    41   21   54 1
    42   22   23 1
    43   22   55 1
    44   22   56 1
    45   23   24 1
    46   23   64 1
    47   24   57 1
    48   24   58 1
    49   25   30 2
    50   25   26 1
    51   26   27 1
    52   26   63 1
    53   27   28 1
    54   27   39 2
    55   28   33 1
    56   28   29 1
    57   29   30 1
    58   29   31 2
    59   31   32 1
    60   32   33 2
    61   32   34 1
    62   34   38 1
    63   34   35 2
    64   35   36 1
    65   35   59 1
    66   36   37 2
    67   36   60 1
    68   37   38 1
    69   37   61 1
    70   39   62 1
@<TRIPOS>MOLECULE
CHEMBL190
   21    22     0     0     0
SMALL
USER_CHARGES

@<TRIPOS>ATOM
      1 C1         -0.0178    1.4608    0.0101 C.3       1 <0>         0.0852
      2 N1          0.0021   -0.0041    0.0020 N.am      1 <0>        -0.5114
      3 C2         -1.1889   -0.7120    0.0039 C.2       1 <0>         0.3216
      4 C3         -1.1437   -2.1005   -0.0039 C.2       1 <0>        -0.1538
      5 C4          0.1107   -2.7476   -0.0134 C.2       1 <0>         0.5936
      6 O1          0.1765   -3.9638   -0.0207 O.2       1 <0>        -0.5134
      7 N2          1.2361   -2.0032   -0.0148 N.am      1 <0>        -0.5513
      8 C5          1.1776   -0.6603   -0.0127 C.2       1 <0>         0.7076
      9 O2          2.2126   -0.0219   -0.0196 O.2       1 <0>        -0.5305
     10 C6          2.5413   -2.6685   -0.0246 C.3       1 <0>         0.0826
     11 N3         -2.4557   -2.5297    0.0001 N.pl3     1 <0>        -0.5179
     12 H1         -2.7618   -3.4502   -0.0030 H         1 <0>         0.4389
     13 C7         -3.2306   -1.4275    0.0098 C.2       1 <0>         0.2785
     14 N4         -2.4766   -0.3579    0.0120 N.2       1 <0>        -0.4991
     15 H2          1.0048    1.8381    0.0023 H         1 <0>         0.1033
     16 H3         -0.5450    1.8219   -0.8730 H         1 <0>         0.0800
     17 H4         -0.5280    1.8123    0.9069 H         1 <0>         0.0801
     18 H5          2.3982   -3.7491   -0.0298 H         1 <0>         0.1039
     19 H6          3.0941   -2.3709   -0.9157 H         1 <0>         0.0832
     20 H7          3.1026   -2.3806    0.8643 H         1 <0>         0.0832
     21 H8         -4.3106   -1.4268    0.0144 H         1 <0>         0.2358
@<TRIPOS>BOND
     1    1    2 1
     2    1   15 1
     3    1   16 1
     4    1   17 1
     5    2    8 am
     6    2    3 1
     7    3   14 1
     8    3    4 2
     9    4    5 1
    10    4   11 1
    11    5    6 2
    12    5    7 am
    13    7    8 am
    14    7   10 1
    15    8    9 2
    16   10   18 1
    17   10   19 1
    18   10   20 1
    19   11   12 1
    20   11   13 1
    21   13   14 2
    22   13   21 1
@<TRIPOS>MOLECULE
CHEMBL179265
   53    58     0     0     0
SMALL
USER_CHARGES

@<TRIPOS>ATOM
      1 C1         -0.0167    1.3777   -0.0073 C.ar      1 <0>        -0.0733
      2 C2          1.1668    2.0885    0.0019 C.ar      1 <0>        -0.1456
      3 C3          2.3866    1.4125    0.0036 C.ar      1 <0>        -0.0112
      4 C4          2.4064    0.0192   -0.0039 C.ar      1 <0>        -0.1505
      5 C5          1.2130   -0.6867   -0.0131 C.ar      1 <0>         0.2137
      6 C6          0.0020   -0.0040   -0.0148 C.ar      1 <0>        -0.1789
      7 N1          1.2276   -2.0836   -0.0212 N.pl3     1 <0>        -0.6284
      8 C7          2.4942   -2.8184   -0.1417 C.3       1 <0>         0.1281
      9 C8          2.3849   -3.8006   -1.3123 C.3       1 <0>        -0.1523
     10 C9          1.1550   -4.6889   -1.1149 C.3       1 <0>         0.2599
     11 C10        -0.1094   -3.8282   -1.0814 C.3       1 <0>        -0.1366
     12 C11        -0.0228   -2.8460    0.0969 C.3       1 <0>         0.1288
     13 O1          1.2771   -5.4141    0.1151 O.3       1 <0>        -0.3735
     14 C12         1.2789   -6.8181   -0.2141 C.3       1 <0>         0.0200
     15 C13         1.7032   -6.8283   -1.7040 C.3       1 <0>         0.0146
     16 O2          1.0650   -5.6269   -2.2000 O.3       1 <0>        -0.3714
     17 C14         3.6582    2.1738    0.0129 C.2       1 <0>         0.2529
     18 C15         3.6347    3.5568    0.0257 C.2       1 <0>        -0.2145
     19 C16         4.8600    4.2475    0.0348 C.2       1 <0>         0.3533
     20 N2          5.1859    5.5305    0.0474 N.2       1 <0>        -0.5241
     21 C17         6.5169    5.6546    0.0514 C.2       1 <0>         0.3534
     22 N3          7.0688    4.4544    0.0415 N.2       1 <0>        -0.3223
     23 N4          6.0239    3.5216    0.0306 N.pl3     1 <0>        -0.3616
     24 C18         5.9768    2.1606    0.0174 C.2       1 <0>         0.6525
     25 N5          4.8302    1.5201    0.0146 N.2       1 <0>        -0.5482
     26 N6          7.1508    1.4440    0.0129 N.pl3     1 <0>        -0.8084
     27 C19         7.2556    6.9347    0.0642 C.2       1 <0>         0.0371
     28 C20         6.7010    8.1757    0.0796 C.2       1 <0>        -0.1270
     29 C21         7.7672    9.0967    0.0874 C.2       1 <0>        -0.2189
     30 C22         8.9082    8.3798    0.0765 C.2       1 <0>        -0.0082
     31 O3          8.5954    7.0742    0.0683 O.3       1 <0>        -0.1608
     32 H1         -0.9602    1.9032   -0.0040 H         1 <0>         0.1291
     33 H2          1.1481    3.1683    0.0074 H         1 <0>         0.1287
     34 H3          3.3484   -0.5091   -0.0030 H         1 <0>         0.1368
     35 H4         -0.9268   -0.5550   -0.0216 H         1 <0>         0.1265
     36 H5          3.3074   -2.1169   -0.3281 H         1 <0>         0.0888
     37 H6          2.6869   -3.3680    0.7797 H         1 <0>         0.0713
     38 H7          2.2866   -3.2454   -2.2451 H         1 <0>         0.0852
     39 H8          3.2798   -4.4217   -1.3507 H         1 <0>         0.0799
     40 H9         -0.1963   -3.2729   -2.0153 H         1 <0>         0.0851
     41 H10        -0.9823   -4.4688   -0.9560 H         1 <0>         0.0845
     42 H11        -0.0271   -3.3976    1.0370 H         1 <0>         0.0730
     43 H12        -0.8715   -2.1627    0.0679 H         1 <0>         0.0898
     44 H13         2.0041   -7.3560    0.3966 H         1 <0>         0.1011
     45 H14         0.2823   -7.2431   -0.0945 H         1 <0>         0.0774
     46 H15         2.7869   -6.7633   -1.8016 H         1 <0>         0.0763
     47 H16         1.3195   -7.7125   -2.2130 H         1 <0>         0.1102
     48 H17         2.6976    4.0936    0.0283 H         1 <0>         0.1688
     49 H18         8.0025    1.9084    0.0190 H         1 <0>         0.4242
     50 H19         7.1272    0.4744    0.0036 H         1 <0>         0.4289
     51 H20         5.6468    8.4103    0.0845 H         1 <0>         0.1633
     52 H21         7.6855   10.1735    0.0999 H         1 <0>         0.1596
     53 H22         9.9082    8.7877    0.0783 H         1 <0>         0.2132
@<TRIPOS>BOND
     1    1    6 ar
     2    1    2 ar
     3    1   32 1
     4    2    3 ar
     5    2   33 1
     6    3    4 ar
     7    3   17 1
     8    4    5 ar
     9    4   34 1
    10    5    6 ar
    11    5    7 1
    12    6   35 1
    13    7   12 1
    14    7    8 1
    15    8    9 1
    16    8   36 1
    17    8   37 1
    18    9   10 1
    19    9   38 1
    20    9   39 1
    21   10   16 1
    22   10   11 1
    23   10   13 1
    24   11   12 1
    25   11   40 1
    26   11   41 1
    27   12   42 1
    28   12   43 1
    29   13   14 1
    30   14   15 1
    31   14   44 1
    32   14   45 1
    33   15   16 1
    34   15   46 1
    35   15   47 1
    36   17   25 1
    37   17   18 2
    38   18   19 1
    39   18   48 1
    40   19   23 1
    41   19   20 2
    42   20   21 1
    43   21   22 2
    44   21   27 1
    45   22   23 1
    46   23   24 1
    47   24   25 2
    48   24   26 1
    49   26   49 1
    50   26   50 1
    51   27   31 1
    52   27   28 2
    53   28   29 1
    54   28   51 1
    55   29   30 2
    56   29   52 1
    57   30   31 1
    58   30   53 1
@<TRIPOS>MOLECULE
CHEMBL1088236
   53    57     0     0     0
SMALL
USER_CHARGES

@<TRIPOS>ATOM
      1 C1         -0.0167    1.3793    0.0096 C.ar      1 <0>        -0.0877
      2 C2          1.1685    2.0929    0.0021 C.ar      1 <0>        -0.1319
      3 C3          2.3774    1.4279   -0.0130 C.ar      1 <0>        -0.0638
      4 C4          2.4029    0.0333   -0.0207 C.ar      1 <0>        -0.0889
      5 C5          1.2046   -0.6805   -0.0131 C.ar      1 <0>        -0.0602
      6 C6          0.0021   -0.0041    0.0020 C.ar      1 <0>        -0.1264
      7 C7          3.6972   -0.6866   -0.0375 C.ar      1 <0>         0.3513
      8 C8          3.8485   -1.9053    0.6416 C.ar      1 <0>        -0.3478
      9 C9          5.0995   -2.5526    0.5963 C.ar      1 <0>         0.2965
     10 N1          6.0850   -1.9878   -0.0854 N.ar      1 <0>        -0.5636
     11 C10         5.9016   -0.8324   -0.7162 C.ar      1 <0>         0.6056
     12 N2          4.7422   -0.1938   -0.7026 N.ar      1 <0>        -0.5646
     13 N3          6.9560   -0.2811   -1.4137 N.pl3     1 <0>        -0.8008
     14 C11         5.0091   -3.8087    1.3828 C.ar      1 <0>        -0.0257
     15 C12         5.9398   -4.8012    1.6568 C.ar      1 <0>        -0.0592
     16 C13         5.5832   -5.8911    2.4363 C.ar      1 <0>        -0.0917
     17 C14         4.3040   -5.9981    2.9448 C.ar      1 <0>        -0.0690
     18 C15         3.3631   -5.0152    2.6796 C.ar      1 <0>        -0.0501
     19 C16         3.7079   -3.9189    1.9009 C.ar      1 <0>        -0.1182
     20 C17         2.9384   -2.7304    1.4536 C.2       1 <0>         0.4572
     21 O1          1.7764   -2.4848    1.7094 O.2       1 <0>        -0.3979
     22 C18         6.5980   -6.9658    2.7299 C.3       1 <0>         0.0624
     23 N4          7.3232   -6.6308    3.9628 N.3       1 <0>        -0.4963
     24 N5          8.3131   -7.6482    4.2778 N.4       1 <0>        -0.2484
     25 C19         7.6706   -8.7416    5.0168 C.3       1 <0>         0.0149
     26 C20         8.6898   -9.8522    5.2803 C.3       1 <0>        -0.1461
     27 C21         9.8494   -9.2879    6.1062 C.3       1 <0>        -0.1405
     28 C22        10.4646   -8.1007    5.3597 C.3       1 <0>        -0.1428
     29 C23         9.3796   -7.0551    5.0933 C.3       1 <0>        -0.0094
     30 H1         -0.9604    1.9042    0.0260 H         1 <0>         0.1294
     31 H2          1.1475    3.1726    0.0078 H         1 <0>         0.1308
     32 H3          3.3020    1.9860   -0.0192 H         1 <0>         0.1300
     33 H4          1.2180   -1.7604   -0.0194 H         1 <0>         0.1328
     34 H5         -0.9264   -0.5556    0.0083 H         1 <0>         0.1307
     35 H6          7.8124   -0.7360   -1.4376 H         1 <0>         0.4198
     36 H7          6.8412    0.5615   -1.8803 H         1 <0>         0.4241
     37 H8          6.9422   -4.7247    1.2623 H         1 <0>         0.1397
     38 H9          4.0354   -6.8506    3.5509 H         1 <0>         0.1454
     39 H10         2.3631   -5.1023    3.0782 H         1 <0>         0.1503
     40 H11         6.0891   -7.9214    2.8559 H         1 <0>         0.1188
     41 H12         7.3029   -7.0360    1.9014 H         1 <0>         0.0846
     42 H13         7.7505   -5.7194    3.8946 H         1 <0>         0.3921
     43 H14         7.2916   -8.3641    5.9666 H         1 <0>         0.1352
     44 H15         6.8435   -9.1400    4.4292 H         1 <0>         0.1265
     45 H16         8.2113  -10.6622    5.8307 H         1 <0>         0.1170
     46 H17         9.0693  -10.2306    4.3311 H         1 <0>         0.0865
     47 H18         9.4785   -8.9561    7.0760 H         1 <0>         0.0849
     48 H19        10.6052  -10.0603    6.2486 H         1 <0>         0.0959
     49 H20        11.2547   -7.6589    5.9668 H         1 <0>         0.1162
     50 H21        10.8809   -8.4428    4.4122 H         1 <0>         0.0874
     51 H22         9.8143   -6.2083    4.5621 H         1 <0>         0.1265
     52 H23         8.9642   -6.7135    6.0414 H         1 <0>         0.1384
     53 H24         8.7068   -8.0093    3.4219 H         1 <0>         0.4002
@<TRIPOS>BOND
     1    1    6 ar
     2    1    2 ar
     3    1   30 1
     4    2    3 ar
     5    2   31 1
     6    3    4 ar
     7    3   32 1
     8    4    5 ar
     9    4    7 1
    10    5    6 ar
    11    5   33 1
    12    6   34 1
    13    7   12 ar
    14    7    8 ar
    15    8   20 1
    16    8    9 ar
    17    9   10 ar
    18    9   14 1
    19   10   11 ar
    20   11   12 ar
    21   11   13 1
    22   13   35 1
    23   13   36 1
    24   14   19 ar
    25   14   15 ar
    26   15   16 ar
    27   15   37 1
    28   16   17 ar
    29   16   22 1
    30   17   18 ar
    31   17   38 1
    32   18   19 ar
    33   18   39 1
    34   19   20 1
    35   20   21 2
    36   22   23 1
    37   22   40 1
    38   22   41 1
    39   23   24 1
    40   23   42 1
    41   24   29 1
    42   24   25 1
    43   24   53 1
    44   25   26 1
    45   25   43 1
    46   25   44 1
    47   26   27 1
    48   26   45 1
    49   26   46 1
    50   27   28 1
    51   27   47 1
    52   27   48 1
    53   28   29 1
    54   28   49 1
    55   28   50 1
    56   29   51 1
    57   29   52 1
@<TRIPOS>MOLECULE
CHEMBL522268
   56    60     0     0     0
SMALL
USER_CHARGES

@<TRIPOS>ATOM
      1 C1         -0.0173    1.4248    0.0099 C.3       1 <0>         0.0265
      2 O1          0.0021   -0.0041    0.0020 O.3       1 <0>        -0.3121
      3 C2          0.6258   -0.6184    1.0415 C.ar      1 <0>         0.1490
      4 C3          1.2024    0.1395    2.0513 C.ar      1 <0>        -0.2166
      5 C4          1.8372   -0.4838    3.1084 C.ar      1 <0>        -0.0582
      6 C5          1.9002   -1.8630    3.1637 C.ar      1 <0>        -0.1695
      7 C6          1.3251   -2.6261    2.1561 C.ar      1 <0>         0.1822
      8 C7          0.6817   -2.0020    1.0968 C.ar      1 <0>        -0.1708
      9 N1          1.3895   -4.0249    2.2120 N.am      1 <0>        -0.4624
     10 C8          1.9894   -4.7660    3.2149 C.ar      1 <0>         0.3941
     11 C9          1.8228   -6.1152    2.8754 C.ar      1 <0>        -0.0661
     12 C10         2.3364   -7.0825    3.7211 C.ar      1 <0>         0.2209
     13 N2          2.9677   -6.6991    4.8222 N.ar      1 <0>        -0.5426
     14 C11         3.1092   -5.4150    5.1162 C.ar      1 <0>         0.5842
     15 N3          2.6324   -4.4588    4.3326 N.ar      1 <0>        -0.5560
     16 N4          3.7767   -5.0611    6.2784 N.pl3     1 <0>        -0.6945
     17 C12         4.3131   -6.1005    7.1604 C.3       1 <0>         0.1431
     18 C13         4.9969   -5.4463    8.3626 C.3       1 <0>        -0.0479
     19 C14         5.5487   -6.5155    9.2700 C.2       1 <0>        -0.1427
     20 C15         6.7733   -7.0965    9.2584 C.2       1 <0>        -0.1509
     21 C16         7.0636   -8.0673   10.1985 C.2       1 <0>        -0.1577
     22 C17         6.1151   -8.4098   11.1042 C.2       1 <0>        -0.1706
     23 S1          4.7618   -7.3401   10.6440 S.3       1 <0>         0.0388
     24 N5          1.1233   -6.1436    1.6708 N.am      1 <0>        -0.5201
     25 C18         0.8729   -4.8721    1.3016 C.2       1 <0>         0.6895
     26 O2          0.2732   -4.5396    0.2965 O.2       1 <0>        -0.5083
     27 C19         0.7243   -7.3467    0.9362 C.3       1 <0>         0.1778
     28 C20        -0.6407   -7.7877    1.3982 C.ar      1 <0>        -0.1999
     29 C21        -0.7616   -8.6695    2.4583 C.ar      1 <0>         0.1495
     30 C22        -2.0164   -9.0741    2.8819 C.ar      1 <0>        -0.1672
     31 C23        -3.1476   -8.5979    2.2466 C.ar      1 <0>        -0.0481
     32 C24        -3.0281   -7.7179    1.1877 C.ar      1 <0>        -0.1680
     33 C25        -1.7746   -7.3071    0.7663 C.ar      1 <0>         0.1570
     34 F1         -1.6582   -6.4421   -0.2649 F         1 <0>        -0.1114
     35 F2          0.3440   -9.1354    3.0792 F         1 <0>        -0.1266
     36 H1          1.0053    1.8021    0.0021 H         1 <0>         0.0572
     37 H2         -0.5445    1.7859   -0.8732 H         1 <0>         0.1024
     38 H3         -0.5275    1.7763    0.9067 H         1 <0>         0.0570
     39 H4          1.1550    1.2177    2.0106 H         1 <0>         0.1327
     40 H5          2.2854    0.1081    3.8928 H         1 <0>         0.1347
     41 H6          2.3973   -2.3478    3.9908 H         1 <0>         0.1543
     42 H7          0.2295   -2.5934    0.3144 H         1 <0>         0.1647
     43 H8          2.2248   -8.1313    3.4886 H         1 <0>         0.1797
     44 H9          3.8886   -4.1253    6.5076 H         1 <0>         0.4162
     45 H10         3.4998   -6.7378    7.5075 H         1 <0>         0.0745
     46 H11         5.0384   -6.7027    6.6132 H         1 <0>         0.0757
     47 H12         5.8103   -4.8090    8.0155 H         1 <0>         0.0949
     48 H13         4.2717   -4.8441    8.9098 H         1 <0>         0.0879
     49 H14         7.5111   -6.8054    8.5253 H         1 <0>         0.1336
     50 H15         8.0316   -8.5462   10.2109 H         1 <0>         0.1344
     51 H16         6.1661   -9.1379   11.9002 H         1 <0>         0.1859
     52 H17         0.6933   -7.1272   -0.1310 H         1 <0>         0.1166
     53 H18         1.4456   -8.1422    1.1228 H         1 <0>         0.1118
     54 H19        -2.1110   -9.7623    3.7089 H         1 <0>         0.1471
     55 H20        -4.1258   -8.9141    2.5777 H         1 <0>         0.1476
     56 H21        -3.9127   -7.3470    0.6915 H         1 <0>         0.1469
@<TRIPOS>BOND
     1    1    2 1
     2    1   36 1
     3    1   37 1
     4    1   38 1
     5    2    3 1
     6    3    8 ar
     7    3    4 ar
     8    4    5 ar
     9    4   39 1
    10    5    6 ar
    11    5   40 1
    12    6    7 ar
    13    6   41 1
    14    7    8 ar
    15    7    9 1
    16    8   42 1
    17    9   25 am
    18    9   10 1
    19   10   15 ar
    20   10   11 ar
    21   11   12 ar
    22   11   24 1
    23   12   13 ar
    24   12   43 1
    25   13   14 ar
    26   14   15 ar
    27   14   16 1
    28   16   17 1
    29   16   44 1
    30   17   18 1
    31   17   45 1
    32   17   46 1
    33   18   19 1
    34   18   47 1
    35   18   48 1
    36   19   23 1
    37   19   20 2
    38   20   21 1
    39   20   49 1
    40   21   22 2
    41   21   50 1
    42   22   23 1
    43   22   51 1
    44   24   25 am
    45   24   27 1
    46   25   26 2
    47   27   28 1
    48   27   52 1
    49   27   53 1
    50   28   33 ar
    51   28   29 ar
    52   29   30 ar
    53   29   35 1
    54   30   31 ar
    55   30   54 1
    56   31   32 ar
    57   31   55 1
    58   32   33 ar
    59   32   56 1
    60   33   34 1
@<TRIPOS>MOLECULE
CHEMBL1082005
   41    44     0     0     0
SMALL
USER_CHARGES

@<TRIPOS>ATOM
      1 C1         -0.0156    1.5043    0.0156 C.3       1 <0>        -0.0768
      2 C2          0.0046   -0.0026    0.0060 C.2       1 <0>         0.0080
      3 C3         -1.0805   -0.8031    0.0047 C.2       1 <0>        -0.2184
      4 C4         -0.6140   -2.1312   -0.0053 C.2       1 <0>        -0.1351
      5 C5          0.7461   -2.0687   -0.0097 C.2       1 <0>         0.0047
      6 O1          1.1056   -0.7700   -0.0086 O.3       1 <0>        -0.1577
      7 C6          1.6654   -3.2213   -0.0196 C.ar      1 <0>         0.2565
      8 C7          2.8831   -3.1384   -0.7187 C.ar      1 <0>        -0.1232
      9 C8          3.7408   -4.2414   -0.7160 C.ar      1 <0>        -0.0252
     10 C9          3.3563   -5.3743   -0.0235 C.ar      1 <0>        -0.2009
     11 C10         2.1363   -5.3870    0.6469 C.ar      1 <0>         0.3763
     12 N1          1.3413   -4.3302    0.6365 N.ar      1 <0>        -0.4588
     13 N2          1.7494   -6.5286    1.3445 N.am      1 <0>        -0.6575
     14 C11         0.6207   -6.5183    2.0809 C.2       1 <0>         0.5324
     15 O2         -0.1060   -5.5475    2.0632 O.2       1 <0>        -0.4639
     16 C12         0.2616   -7.7130    2.9263 C.3       1 <0>        -0.1990
     17 C13        -0.9555   -8.5379    2.5030 C.3       1 <0>        -0.1505
     18 C14        -1.0324   -7.6399    3.7393 C.3       1 <0>        -0.1438
     19 C15         3.2501   -1.9020   -1.4463 C.ar      1 <0>         0.0104
     20 C16         2.3512   -1.2940   -2.3296 C.ar      1 <0>        -0.1452
     21 C17         2.7338   -0.1432   -2.9862 C.ar      1 <0>         0.1032
     22 N3          3.9278    0.3835   -2.7904 N.ar      1 <0>        -0.4831
     23 C18         4.8051   -0.1578   -1.9665 C.ar      1 <0>         0.1012
     24 C19         4.5030   -1.3062   -1.2652 C.ar      1 <0>        -0.1594
     25 H1          1.0071    1.8814    0.0093 H         1 <0>         0.0756
     26 H2         -0.5418    1.8662   -0.8677 H         1 <0>         0.0892
     27 H3         -0.5267    1.8551    0.9121 H         1 <0>         0.0884
     28 H4         -2.1127   -0.4853    0.0107 H         1 <0>         0.1526
     29 H5         -1.2180   -3.0264   -0.0088 H         1 <0>         0.1538
     30 H6          4.6827   -4.2096   -1.2434 H         1 <0>         0.1478
     31 H7          3.9975   -6.2432   -0.0031 H         1 <0>         0.1460
     32 H8          2.2924   -7.3312    1.3003 H         1 <0>         0.4214
     33 H9          1.1034   -8.2471    3.3671 H         1 <0>         0.1277
     34 H10        -1.4965   -8.2164    1.6130 H         1 <0>         0.1007
     35 H11        -0.9145   -9.6150    2.6651 H         1 <0>         0.1079
     36 H12        -1.0421   -8.1262    4.7148 H         1 <0>         0.1067
     37 H13        -1.6240   -6.7276    3.6627 H         1 <0>         0.1097
     38 H14         1.3725   -1.7198   -2.4949 H         1 <0>         0.1298
     39 H15         2.0471    0.3332   -3.6702 H         1 <0>         0.1558
     40 H16         5.7711    0.3072   -1.8365 H         1 <0>         0.1576
     41 H17         5.2243   -1.7414   -0.5893 H         1 <0>         0.1350
@<TRIPOS>BOND
     1    1    2 1
     2    1   25 1
     3    1   26 1
     4    1   27 1
     5    2    6 1
     6    2    3 2
     7    3    4 1
     8    3   28 1
     9    4    5 2
    10    4   29 1
    11    5    6 1
    12    5    7 1
    13    7   12 ar
    14    7    8 ar
    15    8    9 ar
    16    8   19 1
    17    9   10 ar
    18    9   30 1
    19   10   11 ar
    20   10   31 1
    21   11   12 ar
    22   11   13 1
    23   13   14 am
    24   13   32 1
    25   14   15 2
    26   14   16 1
    27   16   18 1
    28   16   17 1
    29   16   33 1
    30   17   18 1
    31   17   34 1
    32   17   35 1
    33   18   36 1
    34   18   37 1
    35   19   24 ar
    36   19   20 ar
    37   20   21 ar
    38   20   38 1
    39   21   22 ar
    40   21   39 1
    41   22   23 ar
    42   23   24 ar
    43   23   40 1
    44   24   41 1
@<TRIPOS>MOLECULE
CHEMBL604591
   81    85     0     0     0
SMALL
USER_CHARGES

@<TRIPOS>ATOM
      1 C1         -0.2780    1.4195   -0.2405 C.3       1 <0>        -0.1563
      2 C2         -0.1398   -0.1027   -0.1731 C.3       1 <0>        -0.1145
      3 C3          0.7762   -0.5821   -1.3010 C.3       1 <0>        -0.1048
      4 C4          2.1883   -0.0372   -1.0776 C.3       1 <0>        -0.1236
      5 C5          2.7215   -0.5378    0.2662 C.3       1 <0>        -0.1556
      6 C6          0.8154   -2.1116   -1.3109 C.3       1 <0>         0.1319
      7 N1          1.6014   -2.5725   -2.4580 N.pl3     1 <0>        -0.6873
      8 C7          1.8692   -3.9206   -2.6163 C.ar      1 <0>         0.5439
      9 C8          2.6269   -4.3788   -3.7084 C.ar      1 <0>        -0.1476
     10 C9          2.8682   -5.7578   -3.8195 C.ar      1 <0>         0.3521
     11 N2          2.3760   -6.5781   -2.8962 N.ar      1 <0>        -0.6071
     12 C10         1.6674   -6.1048   -1.8843 C.ar      1 <0>         0.6278
     13 N3          1.4207   -4.8091   -1.7370 N.ar      1 <0>        -0.6259
     14 N4          1.1715   -6.9914   -0.9425 N.pl3     1 <0>        -0.7031
     15 C11         0.3837   -6.4942    0.1881 C.3       1 <0>         0.1475
     16 C12        -0.0390   -7.6698    1.0714 C.3       1 <0>        -0.0779
     17 C13        -0.8494   -7.1583    2.2344 C.2       1 <0>         0.0393
     18 C14        -0.3567   -6.6840    3.3946 C.2       1 <0>         0.0341
     19 N5         -1.4307   -6.3293    4.1654 N.pl3     1 <0>        -0.4047
     20 C15        -2.5432   -6.5994    3.4491 C.cat     1 <0>         0.2918
     21 N6         -2.1877   -7.0902    2.2933 N.pl3     1 <0>        -0.4745
     22 C16        -1.3824   -5.7625    5.5155 C.3       1 <0>         0.0878
     23 C17        -1.3281   -4.2361    5.4262 C.3       1 <0>        -0.1798
     24 N7          3.6184   -5.9207   -4.9566 N.pl3     1 <0>        -0.4679
     25 C18         3.8137   -4.6836   -5.4981 C.2       1 <0>         0.2324
     26 N8          3.2314   -3.7809   -4.7644 N.2       1 <0>        -0.4438
     27 C19         4.1181   -7.1898   -5.4911 C.3       1 <0>         0.1512
     28 H1          3.7966   -8.0148   -4.8555 H         1 <0>         0.1329
     29 C20         5.6580   -7.1575   -5.5765 C.3       1 <0>        -0.1400
     30 C21         5.9825   -7.9300   -6.8793 C.3       1 <0>         0.1755
     31 H2          5.9437   -9.0061   -6.7101 H         1 <0>         0.1283
     32 C22         4.8471   -7.4831   -7.8334 C.3       1 <0>         0.0614
     33 H3          5.0731   -6.5079   -8.2648 H         1 <0>         0.0839
     34 C23         3.6014   -7.3974   -6.9256 C.3       1 <0>         0.0667
     35 H4          2.9790   -6.5539   -7.2240 H         1 <0>         0.0806
     36 O1          2.8522   -8.6116   -7.0052 O.3       1 <0>        -0.5398
     37 O2          4.6508   -8.4518   -8.8654 O.3       1 <0>        -0.5386
     38 N9          7.2922   -7.5358   -7.4041 N.pl3     1 <0>        -0.3638
     39 C24         7.5428   -6.4717   -8.1954 C.2       1 <0>         0.0727
     40 C25         8.8701   -6.4569   -8.4585 C.2       1 <0>        -0.2369
     41 C26         9.4504   -7.5493   -7.8056 C.2       1 <0>         0.0689
     42 N10         8.5064   -8.1933   -7.1683 N.2       1 <0>        -0.2874
     43 C27         9.5948   -5.4431   -9.3058 C.3       1 <0>         0.1533
     44 O3         10.0315   -4.3595   -8.4830 O.3       1 <0>        -0.5731
     45 H5          0.7044    1.8788   -0.1307 H         1 <0>         0.0596
     46 H6         -0.7064    1.7032   -1.2018 H         1 <0>         0.0560
     47 H7         -0.9306    1.7610    0.5630 H         1 <0>         0.0557
     48 H8          0.2885   -0.3865    0.7882 H         1 <0>         0.0672
     49 H9         -1.1222   -0.5620   -0.2829 H         1 <0>         0.0610
     50 H10         0.3948   -0.2222   -2.2566 H         1 <0>         0.0788
     51 H11         2.8417   -0.3819   -1.8790 H         1 <0>         0.0626
     52 H12         2.1609    1.0525   -1.0745 H         1 <0>         0.0707
     53 H13         3.7238   -0.1419    0.4297 H         1 <0>         0.0549
     54 H14         2.0628   -0.2011    1.0667 H         1 <0>         0.0575
     55 H15         2.7577   -1.6272    0.2597 H         1 <0>         0.0534
     56 H16         1.2739   -2.4693   -0.3890 H         1 <0>         0.0746
     57 H17        -0.2001   -2.5006   -1.3864 H         1 <0>         0.0625
     58 H18         1.9341   -1.9325   -3.1066 H         1 <0>         0.4209
     59 H19         1.3458   -7.9414   -1.0317 H         1 <0>         0.4173
     60 H20         0.9860   -5.7987    0.7727 H         1 <0>         0.0754
     61 H21        -0.5035   -5.9822   -0.1844 H         1 <0>         0.0688
     62 H22        -0.6413   -8.3652    0.4868 H         1 <0>         0.1037
     63 H23         0.8482   -8.1818    1.4439 H         1 <0>         0.1192
     64 H24         0.6856   -6.6000    3.6649 H         1 <0>         0.2229
     65 H25        -3.5587   -6.4328    3.7767 H         1 <0>         0.2609
     66 H26        -2.2730   -6.0627    6.0676 H         1 <0>         0.1223
     67 H27        -0.4946   -6.1281    6.0315 H         1 <0>         0.1244
     68 H28        -0.4375   -3.9359    4.8740 H         1 <0>         0.0743
     69 H29        -2.2159   -3.8705    4.9102 H         1 <0>         0.0722
     70 H30        -1.2922   -3.8144    6.4307 H         1 <0>         0.1008
     71 H31         4.3702   -4.4835   -6.4018 H         1 <0>         0.2159
     72 H32         6.0149   -6.1298   -5.6435 H         1 <0>         0.0930
     73 H33         6.0985   -7.6600   -4.7154 H         1 <0>         0.1029
     74 H34         2.4992   -8.7990   -7.8857 H         1 <0>         0.3878
     75 H35         3.9508   -8.2226   -9.4920 H         1 <0>         0.3850
     76 H36         6.8145   -5.7597   -8.5547 H         1 <0>         0.1704
     77 H37        10.4977   -7.8129   -7.8208 H         1 <0>         0.1867
     78 H38        10.4585   -5.9134   -9.7760 H         1 <0>         0.0566
     79 H39         8.9222   -5.0661  -10.0762 H         1 <0>         0.0509
     80 H40        10.5069   -3.6677   -8.9632 H         1 <0>         0.3805
     81 H41        -2.7954   -7.3644    1.5888 H         1 <0>         0.4631
@<TRIPOS>BOND
     1    1    2 1
     2    1   45 1
     3    1   46 1
     4    1   47 1
     5    2    3 1
     6    2   48 1
     7    2   49 1
     8    3    4 1
     9    3    6 1
    10    3   50 1
    11    4    5 1
    12    4   51 1
    13    4   52 1
    14    5   53 1
    15    5   54 1
    16    5   55 1
    17    6    7 1
    18    6   56 1
    19    6   57 1
    20    7    8 1
    21    7   58 1
    22    8   13 ar
    23    8    9 ar
    24    9   26 1
    25    9   10 ar
    26   10   11 ar
    27   10   24 1
    28   11   12 ar
    29   12   13 ar
    30   12   14 1
    31   14   15 1
    32   14   59 1
    33   15   16 1
    34   15   60 1
    35   15   61 1
    36   16   17 1
    37   16   62 1
    38   16   63 1
    39   17   21 1
    40   17   18 2
    41   18   19 1
    42   18   64 1
    43   19   20 1
    44   19   22 1
    45   20   21 2
    46   20   65 1
    47   21   81 1
    48   22   23 1
    49   22   66 1
    50   22   67 1
    51   23   68 1
    52   23   69 1
    53   23   70 1
    54   24   25 1
    55   24   27 1
    56   25   26 2
    57   25   71 1
    58   27   28 1
    59   27   34 1
    60   27   29 1
    61   29   30 1
    62   29   72 1
    63   29   73 1
    64   30   31 1
    65   30   32 1
    66   30   38 1
    67   32   33 1
    68   32   34 1
    69   32   37 1
    70   34   35 1
    71   34   36 1
    72   36   74 1
    73   37   75 1
    74   38   42 1
    75   38   39 1
    76   39   40 2
    77   39   76 1
    78   40   41 1
    79   40   43 1
    80   41   42 2
    81   41   77 1
    82   43   44 1
    83   43   78 1
    84   43   79 1
    85   44   80 1
@<TRIPOS>MOLECULE
CHEMBL604649
   47    50     0     0     0
SMALL
USER_CHARGES

@<TRIPOS>ATOM
      1 C1         -0.0187    1.5258    0.0104 C.3       1 <0>        -0.1670
      2 C2          0.0021   -0.0041    0.0020 C.3       1 <0>         0.1127
      3 N1         -1.3723   -0.5112    0.0124 N.am      1 <0>        -0.7283
      4 C3         -1.6006   -1.8394    0.0075 C.2       1 <0>         0.4959
      5 O1         -0.6682   -2.6149   -0.0056 O.2       1 <0>        -0.5067
      6 C4         -3.0144   -2.3611    0.0182 C.3       1 <0>         0.0429
      7 H1         -3.5693   -1.9423   -0.8214 H         1 <0>         0.1289
      8 C5         -3.7041   -1.9776    1.3451 C.3       1 <0>         0.0517
      9 H2         -2.9665   -1.7866    2.1246 H         1 <0>         0.0965
     10 C6         -4.5311   -3.2521    1.6670 C.3       1 <0>         0.0774
     11 H3         -4.6779   -3.3642    2.7412 H         1 <0>         0.1036
     12 C7         -3.5965   -4.3569    1.1129 C.3       1 <0>         0.3195
     13 O2         -3.0056   -3.7907   -0.0698 O.3       1 <0>        -0.3322
     14 N2         -4.3702   -5.5529    0.7708 N.pl3     1 <0>        -0.4595
     15 C8         -4.8576   -5.8739   -0.4618 C.2       1 <0>         0.2922
     16 N3         -5.4967   -7.0064   -0.4066 N.2       1 <0>        -0.4641
     17 C9         -5.4610   -7.4840    0.8601 C.ar      1 <0>        -0.0925
     18 C10        -4.7327   -6.5597    1.6308 C.ar      1 <0>         0.3103
     19 N4         -4.5456   -6.7983    2.9223 N.ar      1 <0>        -0.5367
     20 C11        -5.0364   -7.8980    3.4843 C.ar      1 <0>         0.4938
     21 N5         -5.7289   -8.8006    2.7897 N.ar      1 <0>        -0.5694
     22 C12        -5.9674   -8.6328    1.4958 C.ar      1 <0>         0.5150
     23 N6         -6.6865   -9.5758    0.7822 N.pl3     1 <0>        -0.8133
     24 C13        -4.8137   -8.1208    4.8812 C.1       1 <0>        -0.0644
     25 C14        -4.6312   -8.3035    6.0264 C.1       1 <0>        -0.0181
     26 C15        -4.4085   -8.5263    7.4233 C.2       1 <0>        -0.0735
     27 C16        -3.7312   -7.7345    8.3377 C.2       1 <0>        -0.1129
     28 C17        -3.6501   -8.1653    9.6398 C.2       1 <0>        -0.1621
     29 C18        -4.2312   -9.3442    9.9887 C.2       1 <0>        -0.1647
     30 S1         -4.9374   -9.8926    8.4438 S.3       1 <0>         0.0996
     31 O3         -5.7828   -3.2417    0.9776 O.3       1 <0>        -0.5333
     32 O4         -4.5567   -0.8449    1.1663 O.3       1 <0>        -0.5369
     33 H4          1.0039    1.9031    0.0027 H         1 <0>         0.0783
     34 H5         -0.5459    1.8868   -0.8726 H         1 <0>         0.0639
     35 H6         -0.5289    1.8773    0.9072 H         1 <0>         0.0631
     36 H7          0.5123   -0.3556   -0.8948 H         1 <0>         0.0719
     37 H8          0.5293   -0.3651    0.8851 H         1 <0>         0.0713
     38 H9         -2.1181    0.1091    0.0229 H         1 <0>         0.3971
     39 H10        -2.8246   -4.6006    1.8429 H         1 <0>         0.1322
     40 H11        -4.7322   -5.2761   -1.3525 H         1 <0>         0.2234
     41 H12        -6.8459   -9.4485   -0.1661 H         1 <0>         0.4218
     42 H13        -7.0310  -10.3640    1.2304 H         1 <0>         0.4124
     43 H14        -3.2782   -6.8023    8.0339 H         1 <0>         0.1422
     44 H15        -3.1298   -7.5739   10.3787 H         1 <0>         0.1420
     45 H16        -4.2613   -9.8245   10.9556 H         1 <0>         0.1925
     46 H17        -6.3572   -2.5014    1.2166 H         1 <0>         0.3957
     47 H18        -4.0940   -0.0456    0.8797 H         1 <0>         0.3879
@<TRIPOS>BOND
     1    1    2 1
     2    1   33 1
     3    1   34 1
     4    1   35 1
     5    2    3 1
     6    2   36 1
     7    2   37 1
     8    3    4 am
     9    3   38 1
    10    4    5 2
    11    4    6 1
    12    6    7 1
    13    6   13 1
    14    6    8 1
    15    8    9 1
    16    8   10 1
    17    8   32 1
    18   10   11 1
    19   10   12 1
    20   10   31 1
    21   12   13 1
    22   12   14 1
    23   12   39 1
    24   14   18 1
    25   14   15 1
    26   15   16 2
    27   15   40 1
    28   16   17 1
    29   17   22 ar
    30   17   18 ar
    31   18   19 ar
    32   19   20 ar
    33   20   21 ar
    34   20   24 1
    35   21   22 ar
    36   22   23 1
    37   23   41 1
    38   23   42 1
    39   24   25 3
    40   25   26 1
    41   26   30 1
    42   26   27 2
    43   27   28 1
    44   27   43 1
    45   28   29 2
    46   28   44 1
    47   29   30 1
    48   29   45 1
    49   31   46 1
    50   32   47 1
@<TRIPOS>MOLECULE
CHEMBL297685
   44    47     0     0     0
SMALL
USER_CHARGES

@<TRIPOS>ATOM
      1 C1         -0.4009    1.4270    0.0567 C.3       1 <0>         0.0670
      2 N1         -0.1690   -0.0191    0.0228 N.pl3     1 <0>        -0.4614
      3 C2         -0.1942   -0.8226   -1.0904 C.ar      1 <0>         0.3088
      4 C3          0.0828   -2.1269   -0.6383 C.ar      1 <0>        -0.0953
      5 C4          0.1192   -3.1677   -1.5867 C.ar      1 <0>         0.5182
      6 N2         -0.1085   -2.8744   -2.8602 N.ar      1 <0>        -0.5718
      7 C5         -0.3665   -1.6269   -3.2430 C.ar      1 <0>         0.4991
      8 N3         -0.4104   -0.6180   -2.3831 N.ar      1 <0>        -0.5363
      9 C6         -0.6052   -1.3643   -4.6303 C.1       1 <0>        -0.0985
     10 C7         -0.8009   -1.1491   -5.7677 C.1       1 <0>        -0.1153
     11 C8         -1.0463   -0.8792   -7.1938 C.3       1 <0>         0.2426
     12 C9          0.2117   -1.2180   -8.0198 C.3       1 <0>        -0.1442
     13 C10         0.2528   -0.1240   -9.1155 C.3       1 <0>        -0.1219
     14 C11        -0.2211    1.1394   -8.3549 C.3       1 <0>        -0.1251
     15 C12        -1.3215    0.6197   -7.4068 C.3       1 <0>        -0.1106
     16 O1         -2.1575   -1.6510   -7.6535 O.3       1 <0>        -0.5412
     17 N4          0.3872   -4.4685   -1.1981 N.pl3     1 <0>        -0.8111
     18 N5          0.2599   -2.0625    0.6941 N.2       1 <0>        -0.4380
     19 C13         0.1198   -0.8227    1.0966 C.2       1 <0>         0.3102
     20 C14         0.2496   -0.3614    2.4955 C.ar      1 <0>         0.0049
     21 C15         0.1595   -1.2759    3.5461 C.ar      1 <0>        -0.0806
     22 C16         0.2811   -0.8405    4.8494 C.ar      1 <0>        -0.0862
     23 C17         0.4921    0.5002    5.1177 C.ar      1 <0>        -0.1362
     24 C18         0.5823    1.4141    4.0803 C.ar      1 <0>         0.1049
     25 C19         0.4682    0.9888    2.7702 C.ar      1 <0>        -0.1511
     26 F1          0.7880    2.7220    4.3495 F         1 <0>        -0.1330
     27 H1          0.5553    1.9492    0.0231 H         1 <0>         0.0855
     28 H2         -1.0045    1.7185   -0.8028 H         1 <0>         0.1004
     29 H3         -0.9260    1.6894    0.9752 H         1 <0>         0.0970
     30 H4          1.1036   -1.1662   -7.3953 H         1 <0>         0.0797
     31 H5          0.1174   -2.2060   -8.4706 H         1 <0>         0.0814
     32 H6          1.2675    0.0090   -9.4908 H         1 <0>         0.0731
     33 H7         -0.4323   -0.3652   -9.9282 H         1 <0>         0.0753
     34 H8          0.6009    1.5720   -7.7845 H         1 <0>         0.0702
     35 H9         -0.6312    1.8719   -9.0502 H         1 <0>         0.0750
     36 H10        -2.3023    0.7583   -7.8617 H         1 <0>         0.0889
     37 H11        -1.2733    1.1473   -6.4542 H         1 <0>         0.0799
     38 H12        -2.0404   -2.6059   -7.5560 H         1 <0>         0.3832
     39 H13         0.5525   -4.6715   -0.2641 H         1 <0>         0.4217
     40 H14         0.4098   -5.1775   -1.8598 H         1 <0>         0.4134
     41 H15        -0.0056   -2.3229    3.3390 H         1 <0>         0.1455
     42 H16         0.2110   -1.5479    5.6624 H         1 <0>         0.1445
     43 H17         0.5867    0.8357    6.1399 H         1 <0>         0.1429
     44 H18         0.5433    1.7006    1.9614 H         1 <0>         0.1447
@<TRIPOS>BOND
     1    1    2 1
     2    1   27 1
     3    1   28 1
     4    1   29 1
     5    2   19 1
     6    2    3 1
     7    3    8 ar
     8    3    4 ar
     9    4    5 ar
    10    4   18 1
    11    5    6 ar
    12    5   17 1
    13    6    7 ar
    14    7    8 ar
    15    7    9 1
    16    9   10 3
    17   10   11 1
    18   11   15 1
    19   11   12 1
    20   11   16 1
    21   12   13 1
    22   12   30 1
    23   12   31 1
    24   13   14 1
    25   13   32 1
    26   13   33 1
    27   14   15 1
    28   14   34 1
    29   14   35 1
    30   15   36 1
    31   15   37 1
    32   16   38 1
    33   17   39 1
    34   17   40 1
    35   18   19 2
    36   19   20 1
    37   20   25 ar
    38   20   21 ar
    39   21   22 ar
    40   21   41 1
    41   22   23 ar
    42   22   42 1
    43   23   24 ar
    44   23   43 1
    45   24   25 ar
    46   24   26 1
    47   25   44 1
@<TRIPOS>MOLECULE
CHEMBL246054
   68    73     0     0     0
SMALL
USER_CHARGES

@<TRIPOS>ATOM
      1 C1         -0.0173    1.4248    0.0099 C.3       1 <0>         0.0296
      2 O1          0.0021   -0.0041    0.0020 O.3       1 <0>        -0.3873
      3 C2          0.6518   -0.5703   -1.1379 C.3       1 <0>         0.0596
      4 C3          0.6131   -2.0967   -1.0411 C.3       1 <0>         0.0604
      5 O2         -0.7418   -2.5446   -1.1169 O.3       1 <0>        -0.3030
      6 C4         -0.9533   -3.8852   -1.0457 C.ar      1 <0>         0.1465
      7 C5          0.1205   -4.7513   -0.8999 C.ar      1 <0>        -0.2069
      8 C6         -0.0972   -6.1135   -0.8272 C.ar      1 <0>        -0.0649
      9 C7         -1.3840   -6.6140   -0.9002 C.ar      1 <0>        -0.1409
     10 C8         -2.4560   -5.7529   -1.0459 C.ar      1 <0>        -0.0734
     11 C9         -2.2440   -4.3894   -1.1129 C.ar      1 <0>        -0.1487
     12 C10        -1.6186   -8.1005   -0.8212 C.3       1 <0>        -0.0473
     13 C11        -2.3152   -8.5776   -2.0988 C.3       1 <0>        -0.1399
     14 C12        -2.6217  -10.0720   -1.9785 C.3       1 <0>        -0.0050
     15 N1         -3.4995  -10.3038   -0.8251 N.4       1 <0>        -0.3788
     16 C13        -2.8104   -9.9152    0.4113 C.3       1 <0>        -0.0135
     17 C14        -2.5112   -8.4148    0.3829 C.3       1 <0>        -0.1394
     18 C15        -3.8537  -11.7280   -0.7596 C.3       1 <0>        -0.0300
     19 C16        -4.8663  -11.9504    0.3655 C.3       1 <0>         0.0931
     20 N2         -5.2195  -13.3707    0.4308 N.pl3     1 <0>        -0.4620
     21 C17        -6.2901  -13.9638   -0.1692 C.2       1 <0>         0.2262
     22 N3         -6.2962  -15.2381    0.1007 N.2       1 <0>        -0.4150
     23 C18        -5.2364  -15.5360    0.8850 C.2       1 <0>        -0.0173
     24 C19        -4.5300  -14.3488    1.1024 C.2       1 <0>         0.2893
     25 N4         -3.4205  -14.3618    1.8504 N.2       1 <0>        -0.5631
     26 C20        -2.9576  -15.4607    2.3956 C.2       1 <0>         0.6855
     27 N5         -3.5732  -16.6673    2.2392 N.pl3     1 <0>        -0.3668
     28 C21        -4.7229  -16.7589    1.4974 C.2       1 <0>         0.3924
     29 N6         -5.1099  -18.0193    1.5056 N.2       1 <0>        -0.4904
     30 C22        -4.2592  -18.7456    2.2404 C.2       1 <0>         0.3582
     31 N7         -3.3003  -17.9621    2.6984 N.2       1 <0>        -0.2894
     32 C23        -4.3640  -20.2000    2.4822 C.2       1 <0>         0.0292
     33 C24        -3.5103  -20.9478    3.2304 C.2       1 <0>        -0.1281
     34 C25        -3.9877  -22.2728    3.1882 C.2       1 <0>        -0.2206
     35 C26        -5.0977  -22.2683    2.4242 C.2       1 <0>         0.0050
     36 O3         -5.3253  -21.0135    2.0042 O.3       1 <0>        -0.1516
     37 N8         -1.8093  -15.3940    3.1522 N.pl3     1 <0>        -0.8001
     38 H1          1.0053    1.8021    0.0021 H         1 <0>         0.0446
     39 H2         -0.5445    1.7859   -0.8732 H         1 <0>         0.0449
     40 H3         -0.5275    1.7763    0.9067 H         1 <0>         0.0903
     41 H4          0.1385   -0.2506   -2.0447 H         1 <0>         0.0637
     42 H5          1.6883   -0.2344   -1.1694 H         1 <0>         0.0761
     43 H6          1.1847   -2.5275   -1.8631 H         1 <0>         0.0810
     44 H7          1.0473   -2.4117   -0.0922 H         1 <0>         0.0748
     45 H8          1.1259   -4.3609   -0.8436 H         1 <0>         0.1321
     46 H9          0.7385   -6.7882   -0.7137 H         1 <0>         0.1260
     47 H10        -3.4602   -6.1463   -1.1030 H         1 <0>         0.1246
     48 H11        -3.0820   -3.7169   -1.2223 H         1 <0>         0.1348
     49 H12        -0.6639   -8.6148   -0.7113 H         1 <0>         0.0945
     50 H13        -3.2450   -8.0252   -2.2345 H         1 <0>         0.0915
     51 H14        -1.6619   -8.4078   -2.9547 H         1 <0>         0.1158
     52 H15        -3.1175  -10.4150   -2.8866 H         1 <0>         0.1335
     53 H16        -1.6913  -10.6235   -1.8431 H         1 <0>         0.1303
     54 H17        -3.4455  -10.1424    1.2675 H         1 <0>         0.1320
     55 H18        -1.8760  -10.4700    0.4957 H         1 <0>         0.1328
     56 H19        -1.9980   -8.1286    1.3010 H         1 <0>         0.1158
     57 H20        -3.4450   -7.8589    0.2987 H         1 <0>         0.0914
     58 H21        -4.2913  -12.0375   -1.7087 H         1 <0>         0.1412
     59 H22        -2.9575  -12.3166   -0.5635 H         1 <0>         0.1382
     60 H23        -4.4287  -11.6409    1.3146 H         1 <0>         0.1171
     61 H24        -5.7625  -11.3618    0.1695 H         1 <0>         0.1241
     62 H25        -7.0233  -13.4539   -0.7764 H         1 <0>         0.2329
     63 H26        -2.6351  -20.5946    3.7554 H         1 <0>         0.1611
     64 H27        -3.5470  -23.1300    3.6754 H         1 <0>         0.1623
     65 H28        -5.7059  -23.1301    2.1921 H         1 <0>         0.2171
     66 H29        -1.3575  -14.5443    3.2742 H         1 <0>         0.4293
     67 H30        -1.4520  -16.1967    3.5632 H         1 <0>         0.4302
     68 H31        -4.3397   -9.7547   -0.9275 H         1 <0>         0.4242
@<TRIPOS>BOND
     1    1    2 1
     2    1   38 1
     3    1   39 1
     4    1   40 1
     5    2    3 1
     6    3    4 1
     7    3   41 1
     8    3   42 1
     9    4    5 1
    10    4   43 1
    11    4   44 1
    12    5    6 1
    13    6   11 ar
    14    6    7 ar
    15    7    8 ar
    16    7   45 1
    17    8    9 ar
    18    8   46 1
    19    9   10 ar
    20    9   12 1
    21   10   11 ar
    22   10   47 1
    23   11   48 1
    24   12   17 1
    25   12   13 1
    26   12   49 1
    27   13   14 1
    28   13   50 1
    29   13   51 1
    30   14   15 1
    31   14   52 1
    32   14   53 1
    33   15   16 1
    34   15   18 1
    35   15   68 1
    36   16   17 1
    37   16   54 1
    38   16   55 1
    39   17   56 1
    40   17   57 1
    41   18   19 1
    42   18   58 1
    43   18   59 1
    44   19   20 1
    45   19   60 1
    46   19   61 1
    47   20   24 1
    48   20   21 1
    49   21   22 2
    50   21   62 1
    51   22   23 1
    52   23   28 1
    53   23   24 2
    54   24   25 1
    55   25   26 2
    56   26   27 1
    57   26   37 1
    58   27   31 1
    59   27   28 1
    60   28   29 2
    61   29   30 1
    62   30   31 2
    63   30   32 1
    64   32   36 1
    65   32   33 2
    66   33   34 1
    67   33   63 1
    68   34   35 2
    69   34   64 1
    70   35   36 1
    71   35   65 1
    72   37   66 1
    73   37   67 1
@<TRIPOS>MOLECULE
CHEMBL1079801
   30    32     0     0     0
SMALL
USER_CHARGES

@<TRIPOS>ATOM
      1 C1         -0.0161    1.3418    0.0074 C.2       1 <0>        -0.2204
      2 C2          1.3231    1.7733   -0.0024 C.2       1 <0>        -0.1257
      3 C3          2.0962    0.6517   -0.0174 C.2       1 <0>        -0.0098
      4 O1          1.2789   -0.4199   -0.0169 O.3       1 <0>        -0.1645
      5 C4          0.0024   -0.0070   -0.0020 C.2       1 <0>        -0.0111
      6 C5          3.5688    0.6164   -0.0320 C.ar      1 <0>         0.2922
      7 C6          4.2529   -0.4100    0.6514 C.ar      1 <0>        -0.0975
      8 C7          5.6538   -0.4243    0.6243 C.ar      1 <0>         0.0067
      9 C8          6.3088    0.5708   -0.0730 C.ar      1 <0>        -0.2041
     10 C9          5.5679    1.5544   -0.7256 C.ar      1 <0>         0.3980
     11 N1          4.2456    1.5484   -0.6934 N.ar      1 <0>        -0.4612
     12 N2          6.2300    2.5560   -1.4275 N.am      1 <0>        -0.6552
     13 C10         5.5265    3.4526   -2.1469 C.2       1 <0>         0.5327
     14 O2          4.3144    3.4436   -2.1088 O.2       1 <0>        -0.4599
     15 C11         6.2461    4.4665   -2.9986 C.3       1 <0>        -0.1993
     16 C12         6.1735    5.9320   -2.5653 C.3       1 <0>        -0.1503
     17 C13         5.3912    5.4572   -3.7915 C.3       1 <0>        -0.1437
     18 C14         3.5281   -1.4205    1.3616 C.1       1 <0>         0.2552
     19 N3          2.9531   -2.2220    1.9250 N.1       1 <0>        -0.3968
     20 H1         -0.8933    1.9717    0.0240 H         1 <0>         0.1564
     21 H2          1.6708    2.7957    0.0012 H         1 <0>         0.1583
     22 H3         -0.8666   -0.6483    0.0022 H         1 <0>         0.2098
     23 H4          6.2085   -1.1959    1.1374 H         1 <0>         0.1565
     24 H5          7.3879    0.5873   -0.1123 H         1 <0>         0.1539
     25 H6          7.1981    2.6092   -1.3994 H         1 <0>         0.4241
     26 H7          7.1731    4.1221   -3.4571 H         1 <0>         0.1289
     27 H8          5.6054    6.1629   -1.6643 H         1 <0>         0.1013
     28 H9          7.0530    6.5522   -2.7386 H         1 <0>         0.1082
     29 H10         5.7561    5.7650   -4.7714 H         1 <0>         0.1070
     30 H11         4.3084    5.3757   -3.6971 H         1 <0>         0.1102
@<TRIPOS>BOND
     1    1    5 2
     2    1    2 1
     3    1   20 1
     4    2    3 2
     5    2   21 1
     6    3    4 1
     7    3    6 1
     8    4    5 1
     9    5   22 1
    10    6   11 ar
    11    6    7 ar
    12    7    8 ar
    13    7   18 1
    14    8    9 ar
    15    8   23 1
    16    9   10 ar
    17    9   24 1
    18   10   11 ar
    19   10   12 1
    20   12   13 am
    21   12   25 1
    22   13   14 2
    23   13   15 1
    24   15   17 1
    25   15   16 1
    26   15   26 1
    27   16   17 1
    28   16   27 1
    29   16   28 1
    30   17   29 1
    31   17   30 1
    32   18   19 3
@<TRIPOS>MOLECULE
CHEMBL1095822
   45    49     0     0     0
SMALL
USER_CHARGES

@<TRIPOS>ATOM
      1 C1         -0.0129    1.3858    0.0206 C.ar      1 <0>        -0.0938
      2 C2          1.1706    2.1023    0.0295 C.ar      1 <0>        -0.1347
      3 C3          2.3812    1.4403    0.0197 C.ar      1 <0>        -0.0668
      4 C4          2.4101    0.0459    0.0006 C.ar      1 <0>        -0.0796
      5 C5          1.2136   -0.6707   -0.0082 C.ar      1 <0>        -0.0585
      6 C6          0.0093    0.0027    0.0017 C.ar      1 <0>        -0.1275
      7 C7          3.7063   -0.6708   -0.0105 C.ar      1 <0>         0.3375
      8 C8          3.8546   -1.8945    0.6597 C.ar      1 <0>        -0.3400
      9 C9          5.1071   -2.5380    0.6201 C.ar      1 <0>         0.3020
     10 N1          6.0976   -1.9653   -0.0475 N.ar      1 <0>        -0.5621
     11 C10         5.9174   -0.8049   -0.6699 C.ar      1 <0>         0.6000
     12 N2          4.7559   -0.1700   -0.6623 N.ar      1 <0>        -0.5692
     13 N3          6.9770   -0.2450   -1.3530 N.pl3     1 <0>        -0.8060
     14 C11         5.0116   -3.8012    1.3951 C.ar      1 <0>         0.0172
     15 C12         5.9400   -4.7914    1.6682 C.ar      1 <0>        -0.1488
     16 C13         5.5750   -5.8959    2.4403 C.ar      1 <0>         0.2495
     17 C14         4.2820   -6.0058    2.9366 C.ar      1 <0>        -0.1970
     18 C15         3.3492   -5.0222    2.6683 C.ar      1 <0>         0.0076
     19 C16         3.7034   -3.9175    1.9002 C.ar      1 <0>        -0.2138
     20 C17         2.9386   -2.7290    1.4564 C.2       1 <0>         0.4684
     21 O1          1.7734   -2.4874    1.7037 O.2       1 <0>        -0.4242
     22 N4          6.5081   -6.8890    2.7129 N.pl3     1 <0>        -0.6206
     23 C18         6.1864   -8.0023    3.6198 C.3       1 <0>         0.0808
     24 C19         6.5432   -9.3171    2.9169 C.3       1 <0>         0.0450
     25 O2          7.8922   -9.2493    2.4484 O.3       1 <0>        -0.3773
     26 C20         8.1228   -8.2291    1.4739 C.3       1 <0>         0.0459
     27 C21         7.8450   -6.8617    2.0985 C.3       1 <0>         0.0793
     28 H1         -0.9580    1.9084    0.0330 H         1 <0>         0.1260
     29 H2          1.1468    3.1819    0.0439 H         1 <0>         0.1276
     30 H3          3.3044    2.0006    0.0263 H         1 <0>         0.1287
     31 H4          1.2297   -1.7505   -0.0233 H         1 <0>         0.1360
     32 H5         -0.9179   -0.5512   -0.0048 H         1 <0>         0.1286
     33 H6          7.8347   -0.6977   -1.3731 H         1 <0>         0.4189
     34 H7          6.8644    0.6013   -1.8133 H         1 <0>         0.4204
     35 H8          6.9460   -4.7097    1.2838 H         1 <0>         0.1385
     36 H9          4.0051   -6.8623    3.5333 H         1 <0>         0.1384
     37 H10         2.3448   -5.1109    3.0553 H         1 <0>         0.1401
     38 H11         6.7666   -7.9076    4.5377 H         1 <0>         0.0784
     39 H12         5.1221   -7.9887    3.8546 H         1 <0>         0.0978
     40 H13         6.4429  -10.1444    3.6194 H         1 <0>         0.1086
     41 H14         5.8719   -9.4722    2.0723 H         1 <0>         0.0582
     42 H15         9.1589   -8.2737    1.1383 H         1 <0>         0.1089
     43 H16         7.4572   -8.3803    0.6240 H         1 <0>         0.0576
     44 H17         7.8784   -6.0930    1.3264 H         1 <0>         0.0966
     45 H18         8.5950   -6.6501    2.8606 H         1 <0>         0.0778
@<TRIPOS>BOND
     1    1    6 ar
     2    1    2 ar
     3    1   28 1
     4    2    3 ar
     5    2   29 1
     6    3    4 ar
     7    3   30 1
     8    4    5 ar
     9    4    7 1
    10    5    6 ar
    11    5   31 1
    12    6   32 1
    13    7   12 ar
    14    7    8 ar
    15    8   20 1
    16    8    9 ar
    17    9   10 ar
    18    9   14 1
    19   10   11 ar
    20   11   12 ar
    21   11   13 1
    22   13   33 1
    23   13   34 1
    24   14   19 ar
    25   14   15 ar
    26   15   16 ar
    27   15   35 1
    28   16   17 ar
    29   16   22 1
    30   17   18 ar
    31   17   36 1
    32   18   19 ar
    33   18   37 1
    34   19   20 1
    35   20   21 2
    36   22   27 1
    37   22   23 1
    38   23   24 1
    39   23   38 1
    40   23   39 1
    41   24   25 1
    42   24   40 1
    43   24   41 1
    44   25   26 1
    45   26   27 1
    46   26   42 1
    47   26   43 1
    48   27   44 1
    49   27   45 1
@<TRIPOS>MOLECULE
CHEMBL405234
   31    33     0     0     0
SMALL
USER_CHARGES

@<TRIPOS>ATOM
      1 C1         -0.0163    1.3538    0.0095 C.2       1 <0>        -0.1960
      2 C2          1.1733    2.0375    0.0018 C.2       1 <0>        -0.0604
      3 C3          2.3205    1.2513   -0.0134 C.2       1 <0>        -0.2945
      4 S1          1.6359   -0.3947   -0.0157 S.3       1 <0>         0.3074
      5 C4          0.0021   -0.0041    0.0020 C.2       1 <0>        -0.2441
      6 C5          3.7225    1.6666   -0.0249 C.2       1 <0>         0.4936
      7 O1          4.0066    2.8501   -0.0217 O.2       1 <0>        -0.4140
      8 C6          4.7972    0.6466   -0.0406 C.ar      1 <0>         0.2120
      9 C7          6.1311    1.0203   -0.0459 C.ar      1 <0>        -0.2584
     10 C8          7.1619    0.0475   -0.0610 C.ar      1 <0>         0.2201
     11 C9          8.5057    0.5909   -0.0649 C.2       1 <0>        -0.1595
     12 C10         8.6761    1.9248   -0.0545 C.2       1 <0>        -0.1128
     13 S2          7.0094    2.5589   -0.0383 S.3       1 <0>         0.1242
     14 N1          6.7557   -1.2401   -0.0699 N.ar      1 <0>        -0.5286
     15 C11         5.4776   -1.5552   -0.0648 C.ar      1 <0>         0.5715
     16 N2          4.5046   -0.6564   -0.0444 N.ar      1 <0>        -0.5141
     17 N3          5.1317   -2.8980   -0.0750 N.pl3     1 <0>        -0.6901
     18 C12         6.1776   -3.9237   -0.0911 C.3       1 <0>         0.1376
     19 C13         5.5316   -5.3106   -0.0998 C.3       1 <0>         0.0616
     20 O2          4.8067   -5.4907   -1.3181 O.3       1 <0>        -0.5710
     21 H1         -0.9547    1.8883    0.0258 H         1 <0>         0.1360
     22 H2          1.2160    3.1166    0.0068 H         1 <0>         0.1483
     23 H3         -0.8412   -0.6788    0.0070 H         1 <0>         0.1878
     24 H4          9.3610   -0.0684   -0.0757 H         1 <0>         0.1537
     25 H5          9.6024    2.4802   -0.0557 H         1 <0>         0.2042
     26 H6          4.1972   -3.1581   -0.0715 H         1 <0>         0.4190
     27 H7          6.7911   -3.8030   -0.9838 H         1 <0>         0.0766
     28 H8          6.8023   -3.8195    0.7960 H         1 <0>         0.0833
     29 H9          6.3068   -6.0729   -0.0222 H         1 <0>         0.0676
     30 H10         4.8492   -5.3989    0.7455 H         1 <0>         0.0551
     31 H11         4.3700   -6.3503   -1.3925 H         1 <0>         0.3842
@<TRIPOS>BOND
     1    1    5 2
     2    1    2 1
     3    1   21 1
     4    2    3 2
     5    2   22 1
     6    3    4 1
     7    3    6 1
     8    4    5 1
     9    5   23 1
    10    6    7 2
    11    6    8 1
    12    8   16 ar
    13    8    9 ar
    14    9   13 1
    15    9   10 ar
    16   10   11 1
    17   10   14 ar
    18   11   12 2
    19   11   24 1
    20   12   13 1
    21   12   25 1
    22   14   15 ar
    23   15   16 ar
    24   15   17 1
    25   17   18 1
    26   17   26 1
    27   18   19 1
    28   18   27 1
    29   18   28 1
    30   19   20 1
    31   19   29 1
    32   19   30 1
    33   20   31 1
@<TRIPOS>MOLECULE
CHEMBL608297
   54    57     0     0     0
SMALL
USER_CHARGES

@<TRIPOS>ATOM
      1 C1         -0.0164    1.3590    0.0095 C.2       1 <0>         0.2872
      2 N1          1.2006    1.8206    0.0004 N.2       1 <0>        -0.4657
      3 C2          2.0754    0.7871   -0.0135 C.ar      1 <0>        -0.0965
      4 C3          3.4784    0.6816   -0.0279 C.ar      1 <0>         0.5133
      5 N2          4.0240   -0.5276   -0.0400 N.ar      1 <0>        -0.5724
      6 C4          3.2683   -1.6225   -0.0386 C.ar      1 <0>         0.4927
      7 N3          1.9438   -1.5670   -0.0257 N.ar      1 <0>        -0.5399
      8 C5          1.3171   -0.3971   -0.0127 C.ar      1 <0>         0.3119
      9 N4          0.0021   -0.0041    0.0020 N.pl3     1 <0>        -0.4614
     10 C6         -1.1668   -0.8871    0.0089 C.3       1 <0>         0.3134
     11 C7         -1.5287   -1.2882   -1.4374 C.3       1 <0>         0.0764
     12 H1         -1.1656   -2.2906   -1.6643 H         1 <0>         0.0989
     13 C8         -3.0811   -1.2558   -1.4098 C.3       1 <0>         0.0478
     14 H2         -3.4868   -2.1907   -1.0232 H         1 <0>         0.0937
     15 C9         -3.3334   -0.0875   -0.4237 C.3       1 <0>         0.0510
     16 H3         -3.2630    0.8680   -0.9433 H         1 <0>         0.0991
     17 O1         -2.2939   -0.1972    0.5615 O.3       1 <0>        -0.3456
     18 C10        -4.7077   -0.2340    0.2327 C.3       1 <0>         0.0780
     19 O2         -4.9705    0.9098    1.0480 O.3       1 <0>        -0.5628
     20 O3         -3.6132   -0.9631   -2.7033 O.3       1 <0>        -0.5423
     21 O4         -1.0127   -0.3390   -2.3726 O.3       1 <0>        -0.5348
     22 C11         3.9070   -2.9041   -0.0520 C.1       1 <0>        -0.1061
     23 C12         4.4307   -3.9548   -0.0630 C.1       1 <0>        -0.0977
     24 C13         5.0872   -5.2722   -0.0768 C.3       1 <0>         0.2510
     25 C14         5.9161   -5.4109   -1.3250 C.3       1 <0>        -0.1407
     26 C15         5.4014   -4.5252   -2.4758 C.3       1 <0>        -0.1139
     27 C16         3.8651   -4.5278   -2.5906 C.3       1 <0>        -0.1449
     28 C17         3.2759   -5.8994   -2.4011 C.3       1 <0>        -0.1159
     29 C18         2.8793   -6.0618   -0.9195 C.3       1 <0>        -0.1266
     30 C19         4.0181   -6.3840   -0.0724 C.3       1 <0>        -0.0980
     31 O5          5.9220   -5.4045    1.0755 O.3       1 <0>        -0.5443
     32 N5          4.2724    1.8152   -0.0299 N.pl3     1 <0>        -0.8149
     33 H4         -0.9093    1.9664    0.0254 H         1 <0>         0.2183
     34 H5         -0.9533   -1.7785    0.5988 H         1 <0>         0.1367
     35 H6         -5.4727   -0.3132   -0.5397 H         1 <0>         0.0642
     36 H7         -4.7212   -1.1317    0.8509 H         1 <0>         0.0593
     37 H8         -5.8270    0.8849    1.4962 H         1 <0>         0.3860
     38 H9         -4.5793   -0.9327   -2.7335 H         1 <0>         0.3907
     39 H10        -1.2137   -0.5468   -3.2954 H         1 <0>         0.3945
     40 H11         6.9449   -5.1315   -1.0980 H         1 <0>         0.0739
     41 H12         5.8981   -6.4523   -1.6463 H         1 <0>         0.0822
     42 H13         5.7398   -3.5023   -2.3104 H         1 <0>         0.0600
     43 H14         5.8246   -4.8859   -3.4133 H         1 <0>         0.0647
     44 H15         3.4537   -3.8597   -1.8340 H         1 <0>         0.0807
     45 H16         3.5845   -4.1566   -3.5763 H         1 <0>         0.0570
     46 H17         2.3928   -6.0088   -3.0307 H         1 <0>         0.0644
     47 H18         4.0147   -6.6553   -2.6674 H         1 <0>         0.0659
     48 H19         2.4314   -5.1316   -0.5700 H         1 <0>         0.0701
     49 H20         2.1412   -6.8596   -0.8370 H         1 <0>         0.0702
     50 H21         4.4706   -7.3102   -0.4266 H         1 <0>         0.0789
     51 H22         3.6676   -6.5326    0.9489 H         1 <0>         0.0770
     52 H23         6.6215   -4.7393    1.1329 H         1 <0>         0.3831
     53 H24         3.8626    2.6943   -0.0213 H         1 <0>         0.4210
     54 H25         5.2386    1.7306   -0.0398 H         1 <0>         0.4114
@<TRIPOS>BOND
     1    1    9 1
     2    1    2 2
     3    1   33 1
     4    2    3 1
     5    3    8 ar
     6    3    4 ar
     7    4    5 ar
     8    4   32 1
     9    5    6 ar
    10    6    7 ar
    11    6   22 1
    12    7    8 ar
    13    8    9 1
    14    9   10 1
    15   10   17 1
    16   10   11 1
    17   10   34 1
    18   11   12 1
    19   11   13 1
    20   11   21 1
    21   13   14 1
    22   13   15 1
    23   13   20 1
    24   15   16 1
    25   15   17 1
    26   15   18 1
    27   18   19 1
    28   18   35 1
    29   18   36 1
    30   19   37 1
    31   20   38 1
    32   21   39 1
    33   22   23 3
    34   23   24 1
    35   24   30 1
    36   24   25 1
    37   24   31 1
    38   25   26 1
    39   25   40 1
    40   25   41 1
    41   26   27 1
    42   26   42 1
    43   26   43 1
    44   27   28 1
    45   27   44 1
    46   27   45 1
    47   28   29 1
    48   28   46 1
    49   28   47 1
    50   29   30 1
    51   29   48 1
    52   29   49 1
    53   30   50 1
    54   30   51 1
    55   31   52 1
    56   32   53 1
    57   32   54 1
@<TRIPOS>MOLECULE
CHEMBL449710
   59    64     0     0     0
SMALL
USER_CHARGES

@<TRIPOS>ATOM
      1 C1         -0.0167    1.3796    0.0096 C.ar      1 <0>        -0.0359
      2 C2          1.1944    2.0582    0.0017 C.ar      1 <0>        -0.1974
      3 C3          2.3720    1.3381   -0.0134 C.ar      1 <0>         0.1369
      4 N1          2.3579    0.0185   -0.0208 N.ar      1 <0>        -0.5476
      5 C4          1.2248   -0.6633   -0.0137 C.ar      1 <0>         0.3086
      6 C5          0.0021   -0.0041    0.0020 C.ar      1 <0>        -0.1815
      7 O1          1.2567   -2.0197   -0.0217 O.3       1 <0>        -0.2943
      8 C6          2.5448   -2.6382   -0.0378 C.3       1 <0>         0.0620
      9 C7          2.3802   -4.1593   -0.0448 C.3       1 <0>        -0.1140
     10 H1          1.7635   -4.4640    0.8007 H         1 <0>         0.1330
     11 C8          1.7121   -4.5977   -1.3525 C.3       1 <0>        -0.1280
     12 C9          2.6189   -4.2041   -2.5195 C.3       1 <0>        -0.1432
     13 C10         4.0007   -4.8435   -2.3445 C.3       1 <0>         0.0161
     14 H2          3.9047   -5.9292   -2.3570 H         1 <0>         0.1476
     15 C11         4.8795   -4.3916   -3.5188 C.3       1 <0>         0.1085
     16 N2          6.2557   -4.8547   -3.2976 N.pl3     1 <0>        -0.5991
     17 C12         6.8755   -4.5590   -1.9957 C.3       1 <0>         0.0908
     18 C13         5.9203   -5.0349   -0.8989 C.3       1 <0>        -0.0213
     19 N3          4.5958   -4.4177   -1.0735 N.4       1 <0>        -0.3839
     20 C14         3.7526   -4.8237    0.0562 C.3       1 <0>         0.0020
     21 C15         6.9383   -5.5381   -4.2687 C.2       1 <0>         0.6643
     22 N4          8.2223   -5.9580   -4.0180 N.pl3     1 <0>        -0.7075
     23 C16         8.7332   -7.0276   -4.7529 C.2       1 <0>         0.6316
     24 N5          8.2026   -7.1358   -6.0280 N.pl3     1 <0>        -0.3831
     25 C17         7.0108   -6.5160   -6.3426 C.2       1 <0>         0.4997
     26 N6          6.3447   -5.7838   -5.4250 N.2       1 <0>        -0.5252
     27 N7          6.7447   -6.7930   -7.5932 N.2       1 <0>        -0.4764
     28 C18         7.7227   -7.5632   -8.1035 C.2       1 <0>         0.3320
     29 N8          8.6324   -7.7898   -7.1706 N.2       1 <0>        -0.2431
     30 C19         7.7724   -8.0759   -9.4886 C.2       1 <0>         0.0319
     31 C20         6.8474   -7.8461  -10.4581 C.2       1 <0>        -0.1243
     32 C21         7.2926   -8.5210  -11.6120 C.2       1 <0>        -0.2197
     33 C22         8.4553   -9.1231  -11.2933 C.2       1 <0>        -0.0010
     34 O2          8.7451   -8.8473  -10.0115 O.3       1 <0>        -0.1587
     35 N9          9.6282   -7.8494   -4.2834 N.2       1 <0>        -0.6522
     36 H3         -0.9521    1.9192    0.0259 H         1 <0>         0.1480
     37 H4          1.2150    3.1380    0.0070 H         1 <0>         0.1440
     38 H5          3.3168    1.8612   -0.0196 H         1 <0>         0.1634
     39 H6         -0.9215   -0.5639    0.0082 H         1 <0>         0.1448
     40 H7          3.0861   -2.3272   -0.9313 H         1 <0>         0.0602
     41 H8          3.1034   -2.3373    0.8486 H         1 <0>         0.0780
     42 H9          1.5713   -5.6786   -1.3470 H         1 <0>         0.0892
     43 H10         0.7474   -4.1009   -1.4550 H         1 <0>         0.1061
     44 H11         2.1763   -4.5485   -3.4541 H         1 <0>         0.1225
     45 H12         2.7227   -3.1194   -2.5475 H         1 <0>         0.0924
     46 H13         4.4962   -4.8183   -4.4458 H         1 <0>         0.1540
     47 H14         4.8675   -3.3037   -3.5853 H         1 <0>         0.1037
     48 H15         7.8255   -5.0868   -1.9115 H         1 <0>         0.1242
     49 H16         7.0399   -3.4857   -1.9010 H         1 <0>         0.1136
     50 H17         5.8189   -6.1189   -0.9528 H         1 <0>         0.1386
     51 H18         6.3222   -4.7586    0.0758 H         1 <0>         0.1532
     52 H19         4.2278   -4.5301    0.9922 H         1 <0>         0.1393
     53 H20         3.6314   -5.9068    0.0399 H         1 <0>         0.1399
     54 H21         5.9453   -7.2601  -10.3621 H         1 <0>         0.1629
     55 H22         6.7959   -8.5504  -12.5705 H         1 <0>         0.1611
     56 H23         9.0566   -9.7238  -11.9596 H         1 <0>         0.2153
     57 H24         9.9700   -7.7317   -3.3833 H         1 <0>         0.3682
     58 H25         8.7631   -5.5188   -3.3431 H         1 <0>         0.4280
     59 H26         4.6939   -3.4135   -1.0674 H         1 <0>         0.4214
@<TRIPOS>BOND
     1    1    6 ar
     2    1    2 ar
     3    1   36 1
     4    2    3 ar
     5    2   37 1
     6    3    4 ar
     7    3   38 1
     8    4    5 ar
     9    5    6 ar
    10    5    7 1
    11    6   39 1
    12    7    8 1
    13    8    9 1
    14    8   40 1
    15    8   41 1
    16    9   10 1
    17    9   20 1
    18    9   11 1
    19   11   12 1
    20   11   42 1
    21   11   43 1
    22   12   13 1
    23   12   44 1
    24   12   45 1
    25   13   14 1
    26   13   19 1
    27   13   15 1
    28   15   16 1
    29   15   46 1
    30   15   47 1
    31   16   17 1
    32   16   21 1
    33   17   18 1
    34   17   48 1
    35   17   49 1
    36   18   19 1
    37   18   50 1
    38   18   51 1
    39   19   20 1
    40   19   59 1
    41   20   52 1
    42   20   53 1
    43   21   26 2
    44   21   22 1
    45   22   23 1
    46   22   58 1
    47   23   24 1
    48   23   35 2
    49   24   29 1
    50   24   25 1
    51   25   26 1
    52   25   27 2
    53   27   28 1
    54   28   29 2
    55   28   30 1
    56   30   34 1
    57   30   31 2
    58   31   32 1
    59   31   54 1
    60   32   33 2
    61   32   55 1
    62   33   34 1
    63   33   56 1
    64   35   57 1
@<TRIPOS>MOLECULE
CHEMBL610362
   53    56     0     0     0
SMALL
USER_CHARGES

@<TRIPOS>ATOM
      1 C1         -0.0164    1.3590    0.0095 C.2       1 <0>         0.2862
      2 N1          1.2006    1.8206    0.0004 N.2       1 <0>        -0.4658
      3 C2          2.0754    0.7871   -0.0135 C.ar      1 <0>        -0.0983
      4 C3          3.4784    0.6816   -0.0279 C.ar      1 <0>         0.5128
      5 N2          4.0240   -0.5276   -0.0400 N.ar      1 <0>        -0.5742
      6 C4          3.2683   -1.6225   -0.0386 C.ar      1 <0>         0.4969
      7 N3          1.9438   -1.5670   -0.0257 N.ar      1 <0>        -0.5419
      8 C5          1.3171   -0.3971   -0.0127 C.ar      1 <0>         0.3124
      9 N4          0.0021   -0.0041    0.0020 N.pl3     1 <0>        -0.4620
     10 C6         -1.1668   -0.8871    0.0089 C.3       1 <0>         0.3134
     11 C7         -1.5287   -1.2882   -1.4374 C.3       1 <0>         0.0763
     12 H1         -1.1656   -2.2906   -1.6643 H         1 <0>         0.0991
     13 C8         -3.0811   -1.2558   -1.4098 C.3       1 <0>         0.0478
     14 H2         -3.4868   -2.1907   -1.0232 H         1 <0>         0.0938
     15 C9         -3.3334   -0.0875   -0.4237 C.3       1 <0>         0.0510
     16 H3         -3.2630    0.8680   -0.9433 H         1 <0>         0.0989
     17 O1         -2.2939   -0.1972    0.5615 O.3       1 <0>        -0.3457
     18 C10        -4.7077   -0.2340    0.2327 C.3       1 <0>         0.0780
     19 O2         -4.9705    0.9098    1.0480 O.3       1 <0>        -0.5628
     20 O3         -3.6132   -0.9631   -2.7033 O.3       1 <0>        -0.5424
     21 O4         -1.0127   -0.3390   -2.3726 O.3       1 <0>        -0.5347
     22 C11         3.9070   -2.9041   -0.0520 C.1       1 <0>        -0.1274
     23 C12         4.4307   -3.9548   -0.0630 C.1       1 <0>        -0.0881
     24 C13         5.0872   -5.2722   -0.0768 C.3       1 <0>        -0.0117
     25 C14         4.0237   -6.3721   -0.0724 C.3       1 <0>        -0.1096
     26 C15         4.7062   -7.7414   -0.0867 C.3       1 <0>        -0.0930
     27 C16         5.4181   -7.9630   -1.4373 C.3       1 <0>        -0.1239
     28 C17         5.2062   -9.4680   -1.7359 C.3       1 <0>        -0.1270
     29 C18         3.7627   -9.7165   -1.2325 C.3       1 <0>        -0.1264
     30 C19         3.6536   -8.8563    0.0434 C.3       1 <0>        -0.1224
     31 N5          4.2724    1.8152   -0.0299 N.pl3     1 <0>        -0.8156
     32 H4         -0.9093    1.9664    0.0254 H         1 <0>         0.2181
     33 H5         -0.9533   -1.7785    0.5988 H         1 <0>         0.1370
     34 H6         -5.4727   -0.3132   -0.5397 H         1 <0>         0.0641
     35 H7         -4.7212   -1.1317    0.8509 H         1 <0>         0.0593
     36 H8         -5.8270    0.8849    1.4962 H         1 <0>         0.3859
     37 H9         -4.5793   -0.9327   -2.7335 H         1 <0>         0.3905
     38 H10        -1.2137   -0.5468   -3.2954 H         1 <0>         0.3941
     39 H11         5.7004   -5.3632   -0.9733 H         1 <0>         0.0955
     40 H12         5.7179   -5.3731    0.8065 H         1 <0>         0.0945
     41 H13         3.4106   -6.2811    0.8241 H         1 <0>         0.0693
     42 H14         3.3931   -6.2713   -0.9557 H         1 <0>         0.0706
     43 H15         5.4245   -7.8089    0.7303 H         1 <0>         0.0746
     44 H16         4.9600   -7.3516   -2.2148 H         1 <0>         0.0683
     45 H17         6.4809   -7.7373   -1.3498 H         1 <0>         0.0655
     46 H18         5.2814   -9.6639   -2.8055 H         1 <0>         0.0647
     47 H19         5.9194  -10.0763   -1.1796 H         1 <0>         0.0658
     48 H20         3.0373   -9.3883   -1.9770 H         1 <0>         0.0646
     49 H21         3.6174  -10.7704   -0.9957 H         1 <0>         0.0632
     50 H22         3.8616   -9.4653    0.9232 H         1 <0>         0.0633
     51 H23         2.6566   -8.4219    0.1168 H         1 <0>         0.0656
     52 H24         3.8626    2.6943   -0.0213 H         1 <0>         0.4207
     53 H25         5.2386    1.7306   -0.0398 H         1 <0>         0.4111
@<TRIPOS>BOND
     1    1    9 1
     2    1    2 2
     3    1   32 1
     4    2    3 1
     5    3    8 ar
     6    3    4 ar
     7    4    5 ar
     8    4   31 1
     9    5    6 ar
    10    6    7 ar
    11    6   22 1
    12    7    8 ar
    13    8    9 1
    14    9   10 1
    15   10   17 1
    16   10   11 1
    17   10   33 1
    18   11   12 1
    19   11   13 1
    20   11   21 1
    21   13   14 1
    22   13   15 1
    23   13   20 1
    24   15   16 1
    25   15   17 1
    26   15   18 1
    27   18   19 1
    28   18   34 1
    29   18   35 1
    30   19   36 1
    31   20   37 1
    32   21   38 1
    33   22   23 3
    34   23   24 1
    35   24   25 1
    36   24   39 1
    37   24   40 1
    38   25   26 1
    39   25   41 1
    40   25   42 1
    41   26   30 1
    42   26   27 1
    43   26   43 1
    44   27   28 1
    45   27   44 1
    46   27   45 1
    47   28   29 1
    48   28   46 1
    49   28   47 1
    50   29   30 1
    51   29   48 1
    52   29   49 1
    53   30   50 1
    54   30   51 1
    55   31   52 1
    56   31   53 1
@<TRIPOS>MOLECULE
CHEMBL363377
   39    42     0     0     0
SMALL
USER_CHARGES

@<TRIPOS>ATOM
      1 C1         -0.0167    1.3781    0.0096 C.ar      1 <0>        -0.1097
      2 C2          1.1709    2.0855    0.0021 C.ar      1 <0>        -0.1217
      3 C3          2.3773    1.4107   -0.0130 C.ar      1 <0>        -0.0986
      4 C4          2.3960    0.0285   -0.0201 C.ar      1 <0>        -0.1128
      5 C5          1.2084   -0.6789   -0.0117 C.ar      1 <0>        -0.0986
      6 C6          0.0021   -0.0041    0.0020 C.ar      1 <0>        -0.1217
      7 C7          3.7112   -0.7071   -0.0376 C.3       1 <0>         0.1601
      8 N1          4.1518   -0.9524    1.3379 N.am      1 <0>        -0.7020
      9 C8          5.3108   -1.6005    1.5688 C.2       1 <0>         0.5883
     10 O1          5.9906   -1.9815    0.6356 O.2       1 <0>        -0.5263
     11 C9          5.7550   -1.8477    2.9554 C.2       1 <0>         0.0673
     12 C10         6.9321   -2.4995    3.1694 C.2       1 <0>         0.0729
     13 N2          7.3647   -2.7403    4.4348 N.pl3     1 <0>        -0.2544
     14 C11         6.6073   -2.3215    5.4958 C.2       1 <0>         0.2199
     15 C12         5.3496   -1.6245    5.2252 C.2       1 <0>         0.4832
     16 N3          4.9900   -1.4190    3.9752 N.2       1 <0>        -0.5095
     17 N4          4.5510   -1.1836    6.2685 N.pl3     1 <0>        -0.8036
     18 N5          7.2366   -2.6711    6.6021 N.2       1 <0>        -0.4917
     19 C13         8.3731   -3.3005    6.2938 C.2       1 <0>         0.3298
     20 N6          8.4929   -3.3657    4.9774 N.2       1 <0>        -0.2754
     21 C14         9.3444   -3.8389    7.2688 C.2       1 <0>         0.0416
     22 C15        10.5069   -4.4764    6.9680 C.2       1 <0>        -0.1363
     23 C16        11.1129   -4.8152    8.1939 C.2       1 <0>        -0.2180
     24 C17        10.2989   -4.3724    9.1724 C.2       1 <0>        -0.0054
     25 O2          9.2345   -3.7780    8.6100 O.3       1 <0>        -0.1540
     26 H1         -0.9591    1.9053    0.0259 H         1 <0>         0.1239
     27 H2          1.1563    3.1654    0.0076 H         1 <0>         0.1249
     28 H3          3.3051    1.9634   -0.0196 H         1 <0>         0.1246
     29 H4          1.2231   -1.7588   -0.0176 H         1 <0>         0.1246
     30 H5         -0.9258   -0.5567    0.0082 H         1 <0>         0.1249
     31 H6          3.5884   -1.6586   -0.5549 H         1 <0>         0.0820
     32 H7          4.4573   -0.1052   -0.5563 H         1 <0>         0.0820
     33 H8          3.6095   -0.6484    2.0824 H         1 <0>         0.4142
     34 H9          7.5249   -2.8272    2.3282 H         1 <0>         0.1943
     35 H10         4.8244   -1.3363    7.1866 H         1 <0>         0.4247
     36 H11         3.7186   -0.7223    6.0807 H         1 <0>         0.4207
     37 H12        10.8913   -4.6834    5.9802 H         1 <0>         0.1610
     38 H13        12.0520   -5.3324    8.3248 H         1 <0>         0.1601
     39 H14        10.4758   -4.4745   10.2330 H         1 <0>         0.2147
@<TRIPOS>BOND
     1    1    6 ar
     2    1    2 ar
     3    1   26 1
     4    2    3 ar
     5    2   27 1
     6    3    4 ar
     7    3   28 1
     8    4    5 ar
     9    4    7 1
    10    5    6 ar
    11    5   29 1
    12    6   30 1
    13    7    8 1
    14    7   31 1
    15    7   32 1
    16    8    9 am
    17    8   33 1
    18    9   10 2
    19    9   11 1
    20   11   16 1
    21   11   12 2
    22   12   13 1
    23   12   34 1
    24   13   20 1
    25   13   14 1
    26   14   15 1
    27   14   18 2
    28   15   16 2
    29   15   17 1
    30   17   35 1
    31   17   36 1
    32   18   19 1
    33   19   20 2
    34   19   21 1
    35   21   25 1
    36   21   22 2
    37   22   23 1
    38   22   37 1
    39   23   24 2
    40   23   38 1
    41   24   25 1
    42   24   39 1
@<TRIPOS>MOLECULE
CHEMBL130830
   54    57     0     0     0
SMALL
USER_CHARGES

@<TRIPOS>ATOM
      1 C1         -0.0187    1.5258    0.0104 C.3       1 <0>        -0.1677
      2 C2          0.0021   -0.0041    0.0020 C.3       1 <0>         0.1136
      3 N1         -1.3723   -0.5112    0.0124 N.am      1 <0>        -0.7277
      4 C3         -1.6006   -1.8394    0.0075 C.2       1 <0>         0.5158
      5 O1         -0.6682   -2.6149   -0.0056 O.2       1 <0>        -0.5031
      6 C4         -3.0144   -2.3611    0.0182 C.3       1 <0>         0.0321
      7 H1         -3.5805   -1.9494   -0.8174 H         1 <0>         0.1209
      8 C5         -3.7084   -2.0293    1.3638 C.3       1 <0>         0.0506
      9 H2         -3.0081   -2.1165    2.1945 H         1 <0>         0.0946
     10 C6         -4.8001   -3.1239    1.4442 C.3       1 <0>         0.0832
     11 H3         -4.8843   -3.5048    2.4620 H         1 <0>         0.0899
     12 C7         -4.2978   -4.2288    0.4946 C.3       1 <0>         0.3167
     13 H4         -5.0029   -4.3610   -0.3260 H         1 <0>         0.1285
     14 O2         -3.0242   -3.8042   -0.0230 O.3       1 <0>        -0.3266
     15 N2         -4.1477   -5.4871    1.2297 N.pl3     1 <0>        -0.4787
     16 C8         -3.0008   -5.9569    1.8003 C.2       1 <0>         0.2486
     17 N3         -3.2267   -7.1034    2.3721 N.2       1 <0>        -0.4493
     18 C9         -4.5290   -7.4419    2.2057 C.ar      1 <0>        -0.1527
     19 C10        -5.1358   -6.4064    1.4757 C.ar      1 <0>         0.3563
     20 N4         -6.4289   -6.4937    1.1805 N.ar      1 <0>        -0.6079
     21 C11        -7.1392   -7.5399    1.5700 C.ar      1 <0>         0.6344
     22 N5         -6.6075   -8.5385    2.2633 N.ar      1 <0>        -0.6212
     23 C12        -5.3210   -8.5359    2.5945 C.ar      1 <0>         0.5447
     24 N6         -4.7758   -9.5810    3.3191 N.pl3     1 <0>        -0.8154
     25 N7         -8.4842   -7.5943    1.2433 N.pl3     1 <0>        -0.6882
     26 C13        -9.2940   -8.7410    1.6621 C.3       1 <0>         0.1655
     27 H5         -8.9522   -9.1053    2.6309 H         1 <0>         0.1087
     28 C14        -9.1998   -9.8664    0.6112 C.3       1 <0>        -0.1312
     29 C15       -10.6231  -10.4766    0.5793 C.3       1 <0>        -0.1214
     30 C16       -11.5319   -9.2324    0.7379 C.3       1 <0>        -0.1556
     31 C17       -10.7767   -8.3376    1.7439 C.3       1 <0>         0.0927
     32 H6        -10.8937   -7.2885    1.4720 H         1 <0>         0.0628
     33 O3        -11.2721   -8.5595    3.0658 O.3       1 <0>        -0.5596
     34 O4         -6.0569   -2.6106    0.9981 O.3       1 <0>        -0.5323
     35 O5         -4.2936   -0.7261    1.3280 O.3       1 <0>        -0.5369
     36 H7          1.0039    1.9031    0.0027 H         1 <0>         0.0790
     37 H8         -0.5459    1.8868   -0.8726 H         1 <0>         0.0643
     38 H9         -0.5289    1.8773    0.9072 H         1 <0>         0.0636
     39 H10         0.5123   -0.3556   -0.8948 H         1 <0>         0.0729
     40 H11         0.5293   -0.3651    0.8851 H         1 <0>         0.0727
     41 H12        -2.1181    0.1091    0.0229 H         1 <0>         0.3977
     42 H13        -2.0464   -5.4520    1.7797 H         1 <0>         0.2209
     43 H14        -3.8374   -9.5637    3.5640 H         1 <0>         0.4203
     44 H15        -5.3319  -10.3310    3.5820 H         1 <0>         0.4097
     45 H16        -8.8899   -6.8730    0.7372 H         1 <0>         0.4128
     46 H17        -8.9385   -9.4565   -0.3644 H         1 <0>         0.0709
     47 H18        -8.4703  -10.6157    0.9189 H         1 <0>         0.0766
     48 H19       -10.8096  -10.9723   -0.3733 H         1 <0>         0.0701
     49 H20       -10.7658  -11.1676    1.4101 H         1 <0>         0.0731
     50 H21       -11.6473   -8.7201   -0.2172 H         1 <0>         0.0758
     51 H22       -12.5044   -9.5189    1.1382 H         1 <0>         0.0753
     52 H23       -12.2028   -8.3240    3.1816 H         1 <0>         0.3813
     53 H24        -6.3912   -1.8738    1.5276 H         1 <0>         0.3956
     54 H25        -3.6563   -0.0124    1.1882 H         1 <0>         0.3836
@<TRIPOS>BOND
     1    1    2 1
     2    1   36 1
     3    1   37 1
     4    1   38 1
     5    2    3 1
     6    2   39 1
     7    2   40 1
     8    3    4 am
     9    3   41 1
    10    4    5 2
    11    4    6 1
    12    6    7 1
    13    6   14 1
    14    6    8 1
    15    8    9 1
    16    8   10 1
    17    8   35 1
    18   10   11 1
    19   10   12 1
    20   10   34 1
    21   12   13 1
    22   12   14 1
    23   12   15 1
    24   15   19 1
    25   15   16 1
    26   16   17 2
    27   16   42 1
    28   17   18 1
    29   18   23 ar
    30   18   19 ar
    31   19   20 ar
    32   20   21 ar
    33   21   22 ar
    34   21   25 1
    35   22   23 ar
    36   23   24 1
    37   24   43 1
    38   24   44 1
    39   25   26 1
    40   25   45 1
    41   26   27 1
    42   26   31 1
    43   26   28 1
    44   28   29 1
    45   28   46 1
    46   28   47 1
    47   29   30 1
    48   29   48 1
    49   29   49 1
    50   30   31 1
    51   30   50 1
    52   30   51 1
    53   31   32 1
    54   31   33 1
    55   33   52 1
    56   34   53 1
    57   35   54 1
@<TRIPOS>MOLECULE
CHEMBL406298
   22    24     0     0     0
SMALL
USER_CHARGES

@<TRIPOS>ATOM
      1 C1         -0.0162    1.3446    0.0094 C.2       1 <0>        -0.2200
      2 C2          1.3233    1.7757   -0.0010 C.2       1 <0>        -0.1299
      3 C3          2.0959    0.6545   -0.0144 C.2       1 <0>        -0.0054
      4 O1          1.2787   -0.4171   -0.0124 O.3       1 <0>        -0.1599
      5 C4          0.0021   -0.0041    0.0020 C.2       1 <0>        -0.0079
      6 C5          3.5696    0.6189   -0.0287 C.ar      1 <0>         0.3583
      7 C6          4.2642   -0.3813    0.6382 C.ar      1 <0>        -0.2852
      8 C7          5.6758   -0.4226    0.6290 C.ar      1 <0>         0.2215
      9 C8          6.2511   -1.4882    1.3438 C.2       1 <0>        -0.1661
     10 C9          5.4662   -2.3813    1.9762 C.2       1 <0>        -0.1001
     11 S1          3.8202   -1.7915    1.6163 S.3       1 <0>         0.1008
     12 N1          6.2878    0.5681   -0.0657 N.ar      1 <0>        -0.5529
     13 C10         5.5971    1.4999   -0.6853 C.ar      1 <0>         0.5796
     14 N2          4.2719    1.5465   -0.6893 N.ar      1 <0>        -0.5332
     15 N3          6.2909    2.4817   -1.3760 N.pl3     1 <0>        -0.8196
     16 H1         -0.8933    1.9746    0.0252 H         1 <0>         0.1581
     17 H2          1.6713    2.7982    0.0008 H         1 <0>         0.1580
     18 H3         -0.8669   -0.6454    0.0072 H         1 <0>         0.2132
     19 H4          7.3254   -1.5908    1.3856 H         1 <0>         0.1522
     20 H5          5.7602   -3.2427    2.5575 H         1 <0>         0.2046
     21 H6          7.2607    2.4692   -1.3933 H         1 <0>         0.4171
     22 H7          5.8065    3.1811   -1.8420 H         1 <0>         0.4167
@<TRIPOS>BOND
     1    1    5 2
     2    1    2 1
     3    1   16 1
     4    2    3 2
     5    2   17 1
     6    3    4 1
     7    3    6 1
     8    4    5 1
     9    5   18 1
    10    6   14 ar
    11    6    7 ar
    12    7   11 1
    13    7    8 ar
    14    8    9 1
    15    8   12 ar
    16    9   10 2
    17    9   19 1
    18   10   11 1
    19   10   20 1
    20   12   13 ar
    21   13   14 ar
    22   13   15 1
    23   15   21 1
    24   15   22 1
@<TRIPOS>MOLECULE
CHEMBL193761
   41    44     0     0     0
SMALL
USER_CHARGES

@<TRIPOS>ATOM
      1 C1         -0.0167    1.3781    0.0096 C.ar      1 <0>        -0.1230
      2 C2          1.1709    2.0855    0.0021 C.ar      1 <0>        -0.1182
      3 C3          2.3773    1.4107   -0.0130 C.ar      1 <0>        -0.1170
      4 C4          2.3960    0.0285   -0.0201 C.ar      1 <0>        -0.0848
      5 C5          1.2084   -0.6789   -0.0117 C.ar      1 <0>        -0.1161
      6 C6          0.0021   -0.0041    0.0020 C.ar      1 <0>        -0.1180
      7 C7          3.7112   -0.7071   -0.0376 C.3       1 <0>        -0.0759
      8 C8          4.1714   -0.9633    1.3989 C.3       1 <0>        -0.1295
      9 C9          5.5066   -1.7102    1.3812 C.3       1 <0>         0.1127
     10 N1          5.9472   -1.9554    2.7567 N.pl3     1 <0>        -0.4779
     11 C10         6.7985   -1.1756    3.4829 C.2       1 <0>         0.2598
     12 N2          6.9713   -1.6887    4.6668 N.2       1 <0>        -0.4518
     13 C11         6.2454   -2.8258    4.7763 C.ar      1 <0>        -0.0885
     14 C12         5.5746   -3.0090    3.5534 C.ar      1 <0>         0.3298
     15 N3          4.7822   -4.0635    3.4014 N.ar      1 <0>        -0.5725
     16 C13         4.6190   -4.9339    4.3858 C.ar      1 <0>         0.5964
     17 N4          5.2266   -4.8033    5.5559 N.ar      1 <0>        -0.5489
     18 C14         6.0466   -3.7790    5.7952 C.ar      1 <0>         0.3623
     19 C15         6.7171   -3.6391    7.0992 C.2       1 <0>         0.0101
     20 C16         6.1989   -3.9962    8.3075 C.2       1 <0>        -0.1393
     21 C17         7.1747   -3.6888    9.2734 C.2       1 <0>        -0.2230
     22 C18         8.2302   -3.1648    8.6170 C.2       1 <0>        -0.0111
     23 O1          7.9525   -3.1410    7.3045 O.3       1 <0>        -0.1486
     24 N5          3.7826   -6.0201    4.1850 N.pl3     1 <0>        -0.8154
     25 H1         -0.9591    1.9053    0.0259 H         1 <0>         0.1217
     26 H2          1.1563    3.1654    0.0076 H         1 <0>         0.1224
     27 H3          3.3051    1.9634   -0.0196 H         1 <0>         0.1215
     28 H4          1.2231   -1.7588   -0.0176 H         1 <0>         0.1211
     29 H5         -0.9258   -0.5567    0.0082 H         1 <0>         0.1221
     30 H6          3.5884   -1.6586   -0.5549 H         1 <0>         0.0773
     31 H7          4.4573   -0.1052   -0.5563 H         1 <0>         0.0775
     32 H8          4.2941   -0.0118    1.9163 H         1 <0>         0.0725
     33 H9          3.4252   -1.5652    1.9176 H         1 <0>         0.0733
     34 H10         5.3838   -2.6617    0.8639 H         1 <0>         0.0961
     35 H11         6.2527   -1.1082    0.8625 H         1 <0>         0.1014
     36 H12         7.2610   -0.2664    3.1281 H         1 <0>         0.2251
     37 H13         5.2271   -4.4310    8.4889 H         1 <0>         0.1560
     38 H14         7.0937   -3.8431   10.3393 H         1 <0>         0.1554
     39 H15         9.1486   -2.8244    9.0723 H         1 <0>         0.2100
     40 H16         3.3289   -6.1324    3.3350 H         1 <0>         0.4165
     41 H17         3.6507   -6.6683    4.8945 H         1 <0>         0.4185
@<TRIPOS>BOND
     1    1    6 ar
     2    1    2 ar
     3    1   25 1
     4    2    3 ar
     5    2   26 1
     6    3    4 ar
     7    3   27 1
     8    4    5 ar
     9    4    7 1
    10    5    6 ar
    11    5   28 1
    12    6   29 1
    13    7    8 1
    14    7   30 1
    15    7   31 1
    16    8    9 1
    17    8   32 1
    18    8   33 1
    19    9   10 1
    20    9   34 1
    21    9   35 1
    22   10   14 1
    23   10   11 1
    24   11   12 2
    25   11   36 1
    26   12   13 1
    27   13   18 ar
    28   13   14 ar
    29   14   15 ar
    30   15   16 ar
    31   16   17 ar
    32   16   24 1
    33   17   18 ar
    34   18   19 1
    35   19   23 1
    36   19   20 2
    37   20   21 1
    38   20   37 1
    39   21   22 2
    40   21   38 1
    41   22   23 1
    42   22   39 1
    43   24   40 1
    44   24   41 1
@<TRIPOS>MOLECULE
CHEMBL92210
   57    61     0     0     0
SMALL
USER_CHARGES

@<TRIPOS>ATOM
      1 C1          0.2465    1.3218   -0.8204 C.ar      1 <0>        -0.1177
      2 C2          1.4122    1.9971   -0.5108 C.ar      1 <0>        -0.1189
      3 C3          2.5830    1.2935   -0.2982 C.ar      1 <0>        -0.1030
      4 C4          2.5878   -0.0854   -0.3947 C.ar      1 <0>        -0.0708
      5 C5          1.4219   -0.7608   -0.7035 C.ar      1 <0>        -0.1050
      6 C6          0.2515   -0.0571   -0.9175 C.ar      1 <0>        -0.1214
      7 C7          3.8644   -0.8524   -0.1639 C.3       1 <0>         0.1096
      8 C8          4.2403   -1.6122   -1.4381 C.3       1 <0>        -0.1501
      9 C9          5.5266   -2.4057   -1.1926 C.3       1 <0>        -0.1221
     10 C10         5.3132   -3.3559   -0.0110 C.3       1 <0>        -0.1599
     11 C11         4.9062   -2.5456    1.2218 C.3       1 <0>         0.0369
     12 N1          3.6705   -1.8053    0.9365 N.3       1 <0>        -0.2736
     13 N2          2.6389   -2.6596    0.6682 N.pl3     1 <0>        -0.5371
     14 C12         1.5947   -2.7873    1.5672 C.ar      1 <0>         0.5452
     15 C13         0.5281   -3.6658    1.3101 C.ar      1 <0>        -0.1045
     16 C14        -0.5036   -3.7531    2.2595 C.ar      1 <0>         0.3293
     17 N3         -0.4353   -3.0082    3.3584 N.ar      1 <0>        -0.5358
     18 C15         0.5843   -2.1982    3.5581 C.ar      1 <0>         0.4273
     19 N4          1.5801   -2.0864    2.6959 N.ar      1 <0>        -0.5357
     20 Cl1         0.6245   -1.2470    5.0097 Cl        1 <0>         0.0349
     21 N5         -1.3981   -4.6673    1.7633 N.pl3     1 <0>        -0.4684
     22 C16        -0.9140   -5.1044    0.5660 C.2       1 <0>         0.2699
     23 N6          0.2160   -4.5156    0.3019 N.2       1 <0>        -0.4593
     24 C17        -2.6447   -5.0955    2.4027 C.3       1 <0>         0.3127
     25 H1         -2.5206   -5.1363    3.4849 H         1 <0>         0.1246
     26 C18        -3.7973   -4.1372    2.0293 C.3       1 <0>         0.0796
     27 H2         -3.5841   -3.6322    1.0872 H         1 <0>         0.0855
     28 C19        -5.0238   -5.0651    1.8808 C.3       1 <0>         0.0475
     29 H3         -5.4170   -5.0188    0.8652 H         1 <0>         0.0871
     30 C20        -4.4671   -6.4742    2.1820 C.3       1 <0>         0.0505
     31 H4         -4.6238   -6.7280    3.2304 H         1 <0>         0.1006
     32 O1         -3.0536   -6.3840    1.8946 O.3       1 <0>        -0.3463
     33 C21        -5.1322   -7.5141    1.2782 C.3       1 <0>         0.0822
     34 O2         -4.6908   -8.8212    1.6507 O.3       1 <0>        -0.5634
     35 O3         -6.0365   -4.7114    2.8250 O.3       1 <0>        -0.5382
     36 O4         -4.0117   -3.1822    3.0705 O.3       1 <0>        -0.5242
     37 H5         -0.6692    1.8712   -0.9822 H         1 <0>         0.1190
     38 H6          1.4084    3.0745   -0.4353 H         1 <0>         0.1222
     39 H7          3.4939    1.8212   -0.0569 H         1 <0>         0.1223
     40 H8          1.4258   -1.8381   -0.7793 H         1 <0>         0.1182
     41 H9         -0.6593   -0.5847   -1.1591 H         1 <0>         0.1142
     42 H10         4.6639   -0.1578    0.0938 H         1 <0>         0.1090
     43 H11         3.4353   -2.2972   -1.7042 H         1 <0>         0.0634
     44 H12         4.3994   -0.9035   -2.2508 H         1 <0>         0.0799
     45 H13         5.7744   -2.9825   -2.0837 H         1 <0>         0.0696
     46 H14         6.3409   -1.7180   -0.9646 H         1 <0>         0.0705
     47 H15         4.5251   -4.0683   -0.2547 H         1 <0>         0.0623
     48 H16         6.2389   -3.8929    0.1958 H         1 <0>         0.0775
     49 H17         4.7396   -3.2206    2.0613 H         1 <0>         0.0854
     50 H18         5.7007   -1.8429    1.4731 H         1 <0>         0.0950
     51 H19         2.6383   -3.1767   -0.1525 H         1 <0>         0.4043
     52 H20        -1.3972   -5.8318   -0.0695 H         1 <0>         0.2256
     53 H21        -6.2149   -7.4513    1.3877 H         1 <0>         0.0672
     54 H22        -4.8602   -7.3208    0.2405 H         1 <0>         0.0609
     55 H23        -5.0731   -9.5321    1.1183 H         1 <0>         0.3868
     56 H24        -6.8297   -5.2623    2.7758 H         1 <0>         0.3874
     57 H25        -4.7249   -2.5551    2.8883 H         1 <0>         0.3910
@<TRIPOS>BOND
     1    1    6 ar
     2    1    2 ar
     3    1   37 1
     4    2    3 ar
     5    2   38 1
     6    3    4 ar
     7    3   39 1
     8    4    5 ar
     9    4    7 1
    10    5    6 ar
    11    5   40 1
    12    6   41 1
    13    7   12 1
    14    7    8 1
    15    7   42 1
    16    8    9 1
    17    8   43 1
    18    8   44 1
    19    9   10 1
    20    9   45 1
    21    9   46 1
    22   10   11 1
    23   10   47 1
    24   10   48 1
    25   11   12 1
    26   11   49 1
    27   11   50 1
    28   12   13 1
    29   13   14 1
    30   13   51 1
    31   14   19 ar
    32   14   15 ar
    33   15   23 1
    34   15   16 ar
    35   16   17 ar
    36   16   21 1
    37   17   18 ar
    38   18   19 ar
    39   18   20 1
    40   21   22 1
    41   21   24 1
    42   22   23 2
    43   22   52 1
    44   24   25 1
    45   24   32 1
    46   24   26 1
    47   26   27 1
    48   26   28 1
    49   26   36 1
    50   28   29 1
    51   28   30 1
    52   28   35 1
    53   30   31 1
    54   30   32 1
    55   30   33 1
    56   33   34 1
    57   33   53 1
    58   33   54 1
    59   34   55 1
    60   35   56 1
    61   36   57 1
@<TRIPOS>MOLECULE
CHEMBL360166
   55    59     0     0     0
SMALL
USER_CHARGES

@<TRIPOS>ATOM
      1 C1         -8.4496   -6.7865   -4.6458 C.3       1 <0>        -0.1027
      2 C2         -7.6085   -5.9554   -3.7116 C.2       1 <0>         0.1109
      3 C3         -6.4870   -6.3596   -3.0848 C.2       1 <0>        -0.2930
      4 C4         -6.0089   -5.2881   -2.3092 C.2       1 <0>         0.0501
      5 N1         -6.8191   -4.2802   -2.4693 N.2       1 <0>        -0.2908
      6 O1         -7.8423   -4.6811   -3.3626 O.3       1 <0>        -0.0477
      7 C5         -4.7753   -5.3033   -1.4438 C.3       1 <0>         0.0682
      8 N2         -3.6402   -4.7569   -2.1995 N.4       1 <0>        -0.3819
      9 C6         -3.3480   -5.6283   -3.3576 C.3       1 <0>        -0.0104
     10 C7         -1.8052   -5.6005   -3.4942 C.3       1 <0>        -0.1385
     11 C8         -1.3596   -5.5727   -2.0084 C.3       1 <0>        -0.1406
     12 C9         -2.4464   -4.7082   -1.3356 C.3       1 <0>         0.0038
     13 H1         -2.0975   -3.6797   -1.2430 H         1 <0>         0.1419
     14 C10        -2.7803   -5.2742    0.0461 C.3       1 <0>         0.1021
     15 N3         -1.6271   -5.1069    0.9340 N.pl3     1 <0>        -0.5854
     16 C11        -1.4131   -3.8328    1.6247 C.3       1 <0>         0.0809
     17 C12        -0.7401   -6.1523    1.1203 C.2       1 <0>         0.5107
     18 C13         0.3595   -5.9913    1.9752 C.2       1 <0>        -0.3664
     19 C14         1.2256   -7.0347    2.1480 C.2       1 <0>         0.5258
     20 N4          0.9936   -8.2058    1.4812 N.pl3     1 <0>        -0.3809
     21 C15        -0.0893   -8.3268    0.6554 C.2       1 <0>         0.5270
     22 N5         -0.9359   -7.3026    0.4949 N.2       1 <0>        -0.5702
     23 N6         -0.0667   -9.5528    0.1471 N.2       1 <0>        -0.5206
     24 C16         0.9932  -10.2169    0.6207 C.2       1 <0>         0.3683
     25 N7          1.6690   -9.4328    1.4391 N.2       1 <0>        -0.3248
     26 C17         1.3509  -11.6101    0.2814 C.2       1 <0>         0.0286
     27 C18         0.6667  -12.4262   -0.5635 C.2       1 <0>        -0.1223
     28 C19         1.3579  -13.6537   -0.5906 C.2       1 <0>        -0.2206
     29 C20         2.4189  -13.5275    0.2306 C.2       1 <0>        -0.0004
     30 O2          2.4148  -12.2898    0.7511 O.3       1 <0>        -0.1601
     31 N8          2.3165   -6.9081    2.9813 N.pl3     1 <0>        -0.8220
     32 H2         -9.2907   -6.1924   -5.0033 H         1 <0>         0.0942
     33 H3         -7.8436   -7.1053   -5.4939 H         1 <0>         0.1069
     34 H4         -8.8230   -7.6629   -4.1161 H         1 <0>         0.1080
     35 H5         -6.0337   -7.3367   -3.1638 H         1 <0>         0.1716
     36 H6         -4.9470   -4.6950   -0.5557 H         1 <0>         0.1533
     37 H7         -4.5536   -6.3278   -1.1451 H         1 <0>         0.1621
     38 H8         -3.6937   -6.6439   -3.1651 H         1 <0>         0.1374
     39 H9         -3.8159   -5.2315   -4.2586 H         1 <0>         0.1333
     40 H10        -1.4413   -6.4981   -3.9943 H         1 <0>         0.1195
     41 H11        -1.4757   -4.7030   -4.0176 H         1 <0>         0.0962
     42 H12        -1.3531   -6.5788   -1.5891 H         1 <0>         0.1249
     43 H13        -0.3795   -5.1062   -1.9087 H         1 <0>         0.1052
     44 H14        -3.6372   -4.7421    0.4593 H         1 <0>         0.1003
     45 H15        -3.0193   -6.3339   -0.0434 H         1 <0>         0.1222
     46 H16        -1.9587   -3.8349    2.5683 H         1 <0>         0.0727
     47 H17        -0.3491   -3.6999    1.8205 H         1 <0>         0.0879
     48 H18        -1.7722   -3.0156    0.9991 H         1 <0>         0.0787
     49 H19         0.5203   -5.0556    2.4899 H         1 <0>         0.1686
     50 H20        -0.2330  -12.1812   -1.1084 H         1 <0>         0.1622
     51 H21         1.0881  -14.5302   -1.1610 H         1 <0>         0.1610
     52 H22         3.1529  -14.2934    0.4333 H         1 <0>         0.2153
     53 H23         2.4741   -6.0738    3.4504 H         1 <0>         0.4276
     54 H24         2.9263   -7.6532    3.0985 H         1 <0>         0.4227
     55 H25        -3.8629   -3.8278   -2.5237 H         1 <0>         0.4292
@<TRIPOS>BOND
     1    1    2 1
     2    1   32 1
     3    1   33 1
     4    1   34 1
     5    2    6 1
     6    2    3 2
     7    3    4 1
     8    3   35 1
     9    4    5 2
    10    4    7 1
    11    5    6 1
    12    7    8 1
    13    7   36 1
    14    7   37 1
    15    8   12 1
    16    8    9 1
    17    8   55 1
    18    9   10 1
    19    9   38 1
    20    9   39 1
    21   10   11 1
    22   10   40 1
    23   10   41 1
    24   11   12 1
    25   11   42 1
    26   11   43 1
    27   12   13 1
    28   12   14 1
    29   14   15 1
    30   14   44 1
    31   14   45 1
    32   15   16 1
    33   15   17 1
    34   16   46 1
    35   16   47 1
    36   16   48 1
    37   17   22 2
    38   17   18 1
    39   18   19 2
    40   18   49 1
    41   19   20 1
    42   19   31 1
    43   20   25 1
    44   20   21 1
    45   21   22 1
    46   21   23 2
    47   23   24 1
    48   24   25 2
    49   24   26 1
    50   26   30 1
    51   26   27 2
    52   27   28 1
    53   27   50 1
    54   28   29 2
    55   28   51 1
    56   29   30 1
    57   29   52 1
    58   31   53 1
    59   31   54 1
@<TRIPOS>MOLECULE
CHEMBL87844
   64    69     0     0     0
SMALL
USER_CHARGES

@<TRIPOS>ATOM
      1 C1         -0.0164    1.3602    0.0095 C.2       1 <0>         0.2650
      2 N1          1.2002    1.8207    0.0004 N.2       1 <0>        -0.4595
      3 C2          2.0747    0.7847   -0.0135 C.ar      1 <0>        -0.1504
      4 C3          3.4764    0.6773   -0.0279 C.ar      1 <0>         0.5421
      5 N2          4.0206   -0.5342   -0.0400 N.ar      1 <0>        -0.6254
      6 C4          3.2653   -1.6255   -0.0386 C.ar      1 <0>         0.6284
      7 N3          1.9436   -1.5695   -0.0253 N.ar      1 <0>        -0.6176
      8 C5          1.3163   -0.3973   -0.0126 C.ar      1 <0>         0.3553
      9 N4          0.0021   -0.0041    0.0020 N.pl3     1 <0>        -0.4673
     10 C6         -1.1670   -0.8870    0.0084 C.3       1 <0>         0.3164
     11 C7         -1.5283   -1.2880   -1.4379 C.3       1 <0>         0.0773
     12 H1         -1.1653   -2.2904   -1.6647 H         1 <0>         0.0965
     13 C8         -3.0808   -1.2554   -1.4109 C.3       1 <0>         0.0469
     14 H2         -3.4867   -2.1902   -1.0244 H         1 <0>         0.0923
     15 C9         -3.3333   -0.0871   -0.4249 C.3       1 <0>         0.0518
     16 H3         -3.2625    0.8685   -0.9445 H         1 <0>         0.0981
     17 O1         -2.2941   -0.1968    0.5607 O.3       1 <0>        -0.3466
     18 C10        -4.7078   -0.2333    0.2310 C.3       1 <0>         0.0780
     19 O2         -4.9708    0.9105    1.0462 O.3       1 <0>        -0.5625
     20 O3         -3.6124   -0.9626   -2.7046 O.3       1 <0>        -0.5429
     21 O4         -1.0118   -0.3388   -2.3730 O.3       1 <0>        -0.5326
     22 N5          3.8820   -2.8657   -0.0520 N.pl3     1 <0>        -0.6980
     23 C11         5.3441   -2.9566   -0.0674 C.3       1 <0>         0.1381
     24 C12         5.7635   -4.4279   -0.0802 C.3       1 <0>        -0.1240
     25 C13         7.2905   -4.5228   -0.0962 C.3       1 <0>        -0.0451
     26 C14         7.8316   -3.8274   -1.3470 C.3       1 <0>        -0.1056
     27 C15         9.3586   -3.9223   -1.3630 C.3       1 <0>        -0.0863
     28 C16         9.7780   -5.3936   -1.3758 C.3       1 <0>        -0.1086
     29 C17         9.2369   -6.0890   -0.1250 C.3       1 <0>        -0.0860
     30 C18         7.7100   -5.9941   -0.1090 C.3       1 <0>        -0.1011
     31 C19         9.8034   -5.4080    1.1225 C.3       1 <0>        -0.1086
     32 C20         9.3839   -3.9367    1.1353 C.3       1 <0>        -0.0863
     33 C21         9.9250   -3.2413   -0.1155 C.3       1 <0>        -0.1084
     34 C22         7.8570   -3.8418    1.1513 C.3       1 <0>        -0.1057
     35 N6          4.2719    1.8093   -0.0299 N.pl3     1 <0>        -0.8178
     36 H4         -0.9091    1.9679    0.0254 H         1 <0>         0.2116
     37 H5         -0.9538   -1.7783    0.5984 H         1 <0>         0.1332
     38 H6         -5.4725   -0.3124   -0.5417 H         1 <0>         0.0631
     39 H7         -4.7217   -1.1310    0.8492 H         1 <0>         0.0586
     40 H8         -5.8274    0.8857    1.4941 H         1 <0>         0.3852
     41 H9         -4.5784   -0.9320   -2.7352 H         1 <0>         0.3897
     42 H10        -1.2125   -0.5466   -3.2958 H         1 <0>         0.3920
     43 H11         3.3458   -3.6740   -0.0513 H         1 <0>         0.4117
     44 H12         5.7296   -2.4611   -0.9585 H         1 <0>         0.0688
     45 H13         5.7477   -2.4714    0.8213 H         1 <0>         0.0689
     46 H14         5.3781   -4.9233    0.8109 H         1 <0>         0.0698
     47 H15         5.3600   -4.9131   -0.9689 H         1 <0>         0.0696
     48 H16         7.4281   -4.3125   -2.2358 H         1 <0>         0.0615
     49 H17         7.5328   -2.7792   -1.3379 H         1 <0>         0.0672
     50 H18         9.7441   -3.4268   -2.2541 H         1 <0>         0.0684
     51 H19         9.3745   -5.8788   -2.2646 H         1 <0>         0.0605
     52 H20        10.8659   -5.4612   -1.3872 H         1 <0>         0.0604
     53 H21         9.5357   -7.1372   -0.1341 H         1 <0>         0.0682
     54 H22         7.3245   -6.4896    0.7821 H         1 <0>         0.0619
     55 H23         7.3064   -6.4793   -0.9977 H         1 <0>         0.0618
     56 H24         9.4179   -5.9035    2.0136 H         1 <0>         0.0605
     57 H25        10.8912   -5.4757    1.1111 H         1 <0>         0.0604
     58 H26         9.7875   -3.4516    2.0240 H         1 <0>         0.0685
     59 H27        11.0129   -3.3089   -0.1270 H         1 <0>         0.0601
     60 H28         9.6262   -2.1931   -0.1065 H         1 <0>         0.0620
     61 H29         7.5581   -2.7936    1.1604 H         1 <0>         0.0672
     62 H30         7.4715   -4.3372    2.0424 H         1 <0>         0.0617
     63 H31         3.8635    2.6891   -0.0213 H         1 <0>         0.4196
     64 H32         5.2381    1.7231   -0.0398 H         1 <0>         0.4079
@<TRIPOS>BOND
     1    1    9 1
     2    1    2 2
     3    1   36 1
     4    2    3 1
     5    3    8 ar
     6    3    4 ar
     7    4    5 ar
     8    4   35 1
     9    5    6 ar
    10    6    7 ar
    11    6   22 1
    12    7    8 ar
    13    8    9 1
    14    9   10 1
    15   10   17 1
    16   10   11 1
    17   10   37 1
    18   11   12 1
    19   11   13 1
    20   11   21 1
    21   13   14 1
    22   13   15 1
    23   13   20 1
    24   15   16 1
    25   15   17 1
    26   15   18 1
    27   18   19 1
    28   18   38 1
    29   18   39 1
    30   19   40 1
    31   20   41 1
    32   21   42 1
    33   22   23 1
    34   22   43 1
    35   23   24 1
    36   23   44 1
    37   23   45 1
    38   24   25 1
    39   24   46 1
    40   24   47 1
    41   25   30 1
    42   25   34 1
    43   25   26 1
    44   26   27 1
    45   26   48 1
    46   26   49 1
    47   27   33 1
    48   27   28 1
    49   27   50 1
    50   28   29 1
    51   28   51 1
    52   28   52 1
    53   29   30 1
    54   29   31 1
    55   29   53 1
    56   30   54 1
    57   30   55 1
    58   31   32 1
    59   31   56 1
    60   31   57 1
    61   32   33 1
    62   32   34 1
    63   32   58 1
    64   33   59 1
    65   33   60 1
    66   34   61 1
    67   34   62 1
    68   35   63 1
    69   35   64 1
@<TRIPOS>MOLECULE
CHEMBL605461
   46    49     0     0     0
SMALL
USER_CHARGES

@<TRIPOS>ATOM
      1 C1         -0.0167    1.3781    0.0096 C.2       1 <0>        -0.1530
      2 C2          1.1597    2.0514    0.0020 C.2       1 <0>        -0.1695
      3 S1          2.3478    0.7191   -0.0165 S.3       1 <0>         0.0358
      4 C3          1.1962   -0.6452   -0.0128 C.2       1 <0>        -0.1654
      5 C4          0.0021   -0.0041    0.0020 C.2       1 <0>        -0.1205
      6 C5         -1.2859   -0.7864    0.0106 C.3       1 <0>        -0.0642
      7 C6         -1.7361   -1.0435   -1.4289 C.3       1 <0>         0.0844
      8 O1         -2.9574   -1.7853   -1.4207 O.3       1 <0>        -0.2834
      9 C7         -3.4952   -2.0982   -2.6245 C.ar      1 <0>         0.5702
     10 N1         -2.8672   -1.7106   -3.7256 N.ar      1 <0>        -0.6303
     11 C8         -3.3536   -1.9926   -4.9292 C.ar      1 <0>         0.5425
     12 C9         -4.5562   -2.7154   -5.0152 C.ar      1 <0>        -0.1383
     13 C10        -5.1852   -3.1045   -3.8214 C.ar      1 <0>         0.3543
     14 N2         -4.6242   -2.7835   -2.6595 N.ar      1 <0>        -0.5530
     15 N3         -6.3180   -3.7828   -4.1939 N.pl3     1 <0>        -0.4690
     16 C11        -6.3577   -3.7946   -5.5575 C.2       1 <0>         0.2568
     17 N4         -5.3234   -3.1680   -6.0371 N.2       1 <0>        -0.4529
     18 C12        -7.3038   -4.3848   -3.2928 C.3       1 <0>         0.3156
     19 C13        -6.9159   -5.8477   -2.9585 C.3       1 <0>         0.0777
     20 H1         -6.4848   -6.3442   -3.8278 H         1 <0>         0.0908
     21 C14        -8.2846   -6.4698   -2.5893 C.3       1 <0>         0.0451
     22 H2         -8.3696   -7.4759   -2.9999 H         1 <0>         0.0878
     23 C15        -9.3155   -5.5307   -3.2450 C.3       1 <0>         0.0527
     24 H3         -9.9379   -5.0701   -2.4778 H         1 <0>         0.0990
     25 O2         -8.5813   -4.5174   -3.9522 O.3       1 <0>        -0.3481
     26 C16       -10.1912   -6.3196   -4.2206 C.3       1 <0>         0.0773
     27 O3        -11.2168   -5.4681   -4.7356 O.3       1 <0>        -0.5628
     28 O4         -8.4569   -6.4937   -1.1709 O.3       1 <0>        -0.5352
     29 O5         -6.0170   -5.8961   -1.8487 O.3       1 <0>        -0.5200
     30 N5         -2.6913   -1.5834   -6.0730 N.pl3     1 <0>        -0.8127
     31 H4         -0.9545    1.9134    0.0259 H         1 <0>         0.1356
     32 H5          1.3332    3.1174    0.0058 H         1 <0>         0.1867
     33 H6          1.3986   -1.7060   -0.0210 H         1 <0>         0.1867
     34 H7         -1.1294   -1.7384    0.5178 H         1 <0>         0.0853
     35 H8         -2.0533   -0.2172    0.5351 H         1 <0>         0.0847
     36 H9         -1.8927   -0.0914   -1.9361 H         1 <0>         0.0720
     37 H10        -0.9687   -1.6127   -1.9534 H         1 <0>         0.0723
     38 H11        -7.1331   -4.2559   -6.1510 H         1 <0>         0.2234
     39 H12        -7.4013   -3.7934   -2.3824 H         1 <0>         0.1250
     40 H13        -9.5779   -6.6880   -5.0430 H         1 <0>         0.0591
     41 H14       -10.6461   -7.1626   -3.7005 H         1 <0>         0.0661
     42 H15       -11.8112   -5.9029   -5.3622 H         1 <0>         0.3859
     43 H16        -9.2983   -6.8737   -0.8832 H         1 <0>         0.3858
     44 H17        -5.7452   -6.7905   -1.6013 H         1 <0>         0.3870
     45 H18        -1.8623   -1.0848   -6.0013 H         1 <0>         0.4111
     46 H19        -3.0560   -1.7951   -6.9465 H         1 <0>         0.4216
@<TRIPOS>BOND
     1    1    5 1
     2    1    2 2
     3    1   31 1
     4    2    3 1
     5    2   32 1
     6    3    4 1
     7    4    5 2
     8    4   33 1
     9    5    6 1
    10    6    7 1
    11    6   34 1
    12    6   35 1
    13    7    8 1
    14    7   36 1
    15    7   37 1
    16    8    9 1
    17    9   14 ar
    18    9   10 ar
    19   10   11 ar
    20   11   12 ar
    21   11   30 1
    22   12   17 1
    23   12   13 ar
    24   13   14 ar
    25   13   15 1
    26   15   16 1
    27   15   18 1
    28   16   17 2
    29   16   38 1
    30   18   25 1
    31   18   19 1
    32   18   39 1
    33   19   20 1
    34   19   21 1
    35   19   29 1
    36   21   22 1
    37   21   23 1
    38   21   28 1
    39   23   24 1
    40   23   25 1
    41   23   26 1
    42   26   27 1
    43   26   40 1
    44   26   41 1
    45   27   42 1
    46   28   43 1
    47   29   44 1
    48   30   45 1
    49   30   46 1
@<TRIPOS>MOLECULE
CHEMBL100382
   46    50     0     0     0
SMALL
USER_CHARGES

@<TRIPOS>ATOM
      1 C1         -0.0167    1.3781    0.0096 C.ar      1 <0>        -0.1214
      2 C2          1.1709    2.0855    0.0021 C.ar      1 <0>        -0.1180
      3 C3          2.3773    1.4107   -0.0130 C.ar      1 <0>        -0.1153
      4 C4          2.3960    0.0285   -0.0201 C.ar      1 <0>        -0.0874
      5 C5          1.2084   -0.6789   -0.0117 C.ar      1 <0>        -0.1153
      6 C6          0.0021   -0.0041    0.0020 C.ar      1 <0>        -0.1179
      7 C7          3.7112   -0.7071   -0.0376 C.3       1 <0>        -0.0659
      8 C8          4.1714   -0.9633    1.3989 C.3       1 <0>        -0.1285
      9 C9          5.4865   -1.6989    1.3815 C.2       1 <0>         0.5107
     10 O1          6.0046   -1.9897    0.3244 O.2       1 <0>        -0.4473
     11 N1          6.0868   -2.0337    2.5408 N.am      1 <0>        -0.6474
     12 C10         7.2924   -2.7081    2.5248 C.2       1 <0>         0.6223
     13 N2          7.8282   -3.0026    1.3704 N.2       1 <0>        -0.4666
     14 C11         9.0080   -3.6617    1.2735 C.ar      1 <0>         0.1649
     15 C12         9.5710   -3.9706    0.0322 C.ar      1 <0>        -0.0800
     16 C13        10.7626   -4.6359   -0.0281 C.ar      1 <0>        -0.0639
     17 C14        11.4296   -5.0137    1.1311 C.ar      1 <0>        -0.0465
     18 C15        10.8992   -4.7231    2.3703 C.ar      1 <0>        -0.0387
     19 C16         9.6850   -4.0452    2.4537 C.ar      1 <0>        -0.0939
     20 C17         9.0681   -3.7065    3.7414 C.2       1 <0>         0.3565
     21 N3          7.8755   -3.0332    3.7176 N.pl3     1 <0>        -0.3615
     22 N4          7.5154   -2.8310    5.0567 N.2       1 <0>        -0.2891
     23 C18         8.4690   -3.3636    5.7978 C.2       1 <0>         0.3472
     24 N5          9.4007   -3.8987    4.9988 N.2       1 <0>        -0.4985
     25 C19         8.4976   -3.3780    7.2753 C.2       1 <0>         0.0388
     26 C20         7.5496   -2.8539    8.0967 C.2       1 <0>        -0.1337
     27 C21         7.9802   -3.0915    9.4171 C.2       1 <0>        -0.2195
     28 C22         9.1576   -3.7422    9.3373 C.2       1 <0>        -0.0014
     29 O2          9.4646   -3.9180    8.0420 O.3       1 <0>        -0.1525
     30 Cl1        12.9419   -5.8586    1.0182 Cl        1 <0>        -0.0494
     31 H1         -0.9591    1.9053    0.0259 H         1 <0>         0.1218
     32 H2          1.1563    3.1654    0.0076 H         1 <0>         0.1226
     33 H3          3.3051    1.9634   -0.0196 H         1 <0>         0.1223
     34 H4          1.2231   -1.7588   -0.0176 H         1 <0>         0.1223
     35 H5         -0.9258   -0.5567    0.0082 H         1 <0>         0.1226
     36 H6          3.5884   -1.6586   -0.5549 H         1 <0>         0.0844
     37 H7          4.4573   -0.1052   -0.5563 H         1 <0>         0.0844
     38 H8          4.2941   -0.0118    1.9163 H         1 <0>         0.1047
     39 H9          3.4252   -1.5652    1.9176 H         1 <0>         0.1047
     40 H10         5.6724   -1.8012    3.3864 H         1 <0>         0.4300
     41 H11         9.0648   -3.6841   -0.8777 H         1 <0>         0.1576
     42 H12        11.1923   -4.8720   -0.9904 H         1 <0>         0.1510
     43 H13        11.4206   -5.0188    3.2687 H         1 <0>         0.1543
     44 H14         6.6419   -2.3521    7.7954 H         1 <0>         0.1608
     45 H15         7.4644   -2.8059   10.3220 H         1 <0>         0.1606
     46 H16         9.7535   -4.0709   10.1759 H         1 <0>         0.2152
@<TRIPOS>BOND
     1    1    6 ar
     2    1    2 ar
     3    1   31 1
     4    2    3 ar
     5    2   32 1
     6    3    4 ar
     7    3   33 1
     8    4    5 ar
     9    4    7 1
    10    5    6 ar
    11    5   34 1
    12    6   35 1
    13    7    8 1
    14    7   36 1
    15    7   37 1
    16    8    9 1
    17    8   38 1
    18    8   39 1
    19    9   10 2
    20    9   11 am
    21   11   12 1
    22   11   40 1
    23   12   21 1
    24   12   13 2
    25   13   14 1
    26   14   19 ar
    27   14   15 ar
    28   15   16 ar
    29   15   41 1
    30   16   17 ar
    31   16   42 1
    32   17   18 ar
    33   17   30 1
    34   18   19 ar
    35   18   43 1
    36   19   20 1
    37   20   24 2
    38   20   21 1
    39   21   22 1
    40   22   23 2
    41   23   24 1
    42   23   25 1
    43   25   29 1
    44   25   26 2
    45   26   27 1
    46   26   44 1
    47   27   28 2
    48   27   45 1
    49   28   29 1
    50   28   46 1
@<TRIPOS>MOLECULE
CHEMBL106265
   34    36     0     0     0
SMALL
USER_CHARGES

@<TRIPOS>ATOM
      1 C1         -0.0127    1.0858    0.0080 C.3       1 <0>         0.0884
      2 N1         -0.7213    1.5711   -1.1789 N.am      1 <0>        -0.5104
      3 C2         -2.0896    1.7829   -1.1291 C.2       1 <0>         0.3237
      4 C3         -2.7385    2.2438   -2.2678 C.2       1 <0>        -0.1542
      5 C4         -1.9871    2.4823   -3.4387 C.2       1 <0>         0.5938
      6 O1         -2.5331    2.8869   -4.4494 O.2       1 <0>        -0.5126
      7 N2         -0.6567    2.2572   -3.4249 N.am      1 <0>        -0.5512
      8 C5         -0.0409    1.8160   -2.3146 C.2       1 <0>         0.7071
      9 O2          1.1605    1.6290   -2.3377 O.2       1 <0>        -0.5309
     10 C6          0.1291    2.5026   -4.6367 C.3       1 <0>         0.0833
     11 N3         -4.0723    2.3610   -1.9316 N.pl3     1 <0>        -0.5128
     12 C7         -4.1887    1.9809   -0.6443 C.2       1 <0>         0.3091
     13 N4         -3.0147    1.6409   -0.1765 N.2       1 <0>        -0.4922
     14 H1         -4.7896    2.6601   -2.5121 H         1 <0>         0.4352
     15 C8         -5.4760    1.9518    0.1386 C.3       1 <0>        -0.0170
     16 C9         -6.6565    1.6202   -0.7975 C.3       1 <0>        -0.1247
     17 C10        -7.8209    2.4910   -0.2636 C.3       1 <0>        -0.1244
     18 C11        -7.1081    3.8065    0.1369 C.3       1 <0>        -0.1290
     19 C12        -5.7632    3.3419    0.7328 C.3       1 <0>        -0.1171
     20 H2          0.0021   -0.0041    0.0020 H         1 <0>         0.0741
     21 H3          1.0099    1.4631    0.0003 H         1 <0>         0.0942
     22 H4         -0.5229    1.4373    0.9048 H         1 <0>         0.0923
     23 H5          0.4850    3.5329   -4.6365 H         1 <0>         0.0771
     24 H6          0.9816    1.8238   -4.6606 H         1 <0>         0.0971
     25 H7         -0.4945    2.3338   -5.5146 H         1 <0>         0.0952
     26 H8         -5.4112    1.2112    0.9358 H         1 <0>         0.1182
     27 H9         -6.4165    1.8927   -1.8253 H         1 <0>         0.0624
     28 H10        -6.9100    0.5622   -0.7317 H         1 <0>         0.0826
     29 H11        -8.5572    2.6734   -1.0463 H         1 <0>         0.0739
     30 H12        -8.2860    2.0238    0.6045 H         1 <0>         0.0763
     31 H13        -6.9411    4.4321   -0.7400 H         1 <0>         0.0666
     32 H14        -7.6913    4.3440    0.8846 H         1 <0>         0.0745
     33 H15        -5.8387    3.2757    1.8181 H         1 <0>         0.0826
     34 H16        -4.9715    4.0376    0.4548 H         1 <0>         0.0685
@<TRIPOS>BOND
     1    1   20 1
     2    1   21 1
     3    1   22 1
     4    1    2 1
     5    2    3 1
     6    2    8 am
     7    3   13 1
     8    3    4 2
     9    4    5 1
    10    4   11 1
    11    5    7 am
    12    5    6 2
    13    7    8 am
    14    7   10 1
    15    8    9 2
    16   10   23 1
    17   10   24 1
    18   10   25 1
    19   11   14 1
    20   11   12 1
    21   12   15 1
    22   12   13 2
    23   15   19 1
    24   15   16 1
    25   15   26 1
    26   16   17 1
    27   16   27 1
    28   16   28 1
    29   17   18 1
    30   17   29 1
    31   17   30 1
    32   18   19 1
    33   18   31 1
    34   18   32 1
    35   19   33 1
    36   19   34 1
@<TRIPOS>MOLECULE
CHEMBL1222145
   38    40     0     0     0
SMALL
USER_CHARGES

@<TRIPOS>ATOM
      1 C1          0.0044    1.4814    0.4806 C.3       1 <0>        -0.1533
      2 C2          0.0119   -0.0230    0.2019 C.3       1 <0>         0.0634
      3 O1         -1.3279   -0.5192    0.2295 O.3       1 <0>        -0.3516
      4 C3         -1.4975   -1.8387    0.0007 C.2       1 <0>         0.5610
      5 O2         -0.5324   -2.5477   -0.2162 O.2       1 <0>        -0.4866
      6 C4         -2.7978   -2.3977    0.0132 C.2       1 <0>        -0.3345
      7 C5         -3.1967   -3.7376   -0.0757 C.2       1 <0>         0.2471
      8 N1         -4.4952   -3.9544   -0.0362 N.2       1 <0>        -0.5505
      9 C6         -5.3560   -2.9630    0.0801 C.2       1 <0>         0.2614
     10 S1         -4.3847   -1.5913    0.1545 S.3       1 <0>         0.3281
     11 N2         -6.7353   -3.0342    0.1343 N.am      1 <0>        -0.5996
     12 C7         -7.4640   -1.9069    0.2557 C.2       1 <0>         0.6117
     13 O3         -6.9076   -0.8264    0.3176 O.2       1 <0>        -0.4741
     14 C8         -8.9267   -1.9824    0.3132 C.2       1 <0>        -0.0958
     15 C9         -9.7812   -0.9231    0.4292 C.2       1 <0>        -0.0886
     16 C10       -11.0807   -1.4529    0.4457 C.2       1 <0>        -0.2264
     17 C11       -10.9644   -2.7953    0.3405 C.2       1 <0>         0.0180
     18 O4         -9.6653   -3.1100    0.2550 O.3       1 <0>        -0.1643
     19 C12        -2.2187   -4.8422   -0.2066 C.ar      1 <0>        -0.0439
     20 C13        -1.0837   -4.8722    0.6036 C.ar      1 <0>        -0.0489
     21 C14        -0.1765   -5.9041    0.4773 C.ar      1 <0>        -0.1261
     22 C15        -0.3908   -6.9076   -0.4506 C.ar      1 <0>        -0.1002
     23 C16        -1.5144   -6.8832   -1.2574 C.ar      1 <0>        -0.1314
     24 C17        -2.4318   -5.8597   -1.1365 C.ar      1 <0>        -0.0762
     25 H1          1.0264    1.8599    0.4595 H         1 <0>         0.0812
     26 H2         -0.5868    1.9891   -0.2815 H         1 <0>         0.0673
     27 H3         -0.4316    1.6669    1.4622 H         1 <0>         0.0673
     28 H4          0.4480   -0.2085   -0.7797 H         1 <0>         0.0699
     29 H5          0.6032   -0.5308    0.9639 H         1 <0>         0.0698
     30 H6         -7.1788   -3.8954    0.0850 H         1 <0>         0.4340
     31 H7         -9.5095    0.1201    0.4956 H         1 <0>         0.1681
     32 H8        -12.0007   -0.8932    0.5277 H         1 <0>         0.1645
     33 H9        -11.7842   -3.4981    0.3238 H         1 <0>         0.2179
     34 H10        -0.9151   -4.0891    1.3280 H         1 <0>         0.1212
     35 H11         0.7029   -5.9282    1.1038 H         1 <0>         0.1260
     36 H12         0.3222   -7.7132   -0.5458 H         1 <0>         0.1242
     37 H13        -1.6759   -7.6691   -1.9804 H         1 <0>         0.1258
     38 H14        -3.3111   -5.8442   -1.7635 H         1 <0>         0.1241
@<TRIPOS>BOND
     1    1    2 1
     2    1   25 1
     3    1   26 1
     4    1   27 1
     5    2    3 1
     6    2   28 1
     7    2   29 1
     8    3    4 1
     9    4    5 2
    10    4    6 1
    11    6   10 1
    12    6    7 2
    13    7    8 1
    14    7   19 1
    15    8    9 2
    16    9   10 1
    17    9   11 1
    18   11   12 am
    19   11   30 1
    20   12   13 2
    21   12   14 1
    22   14   18 1
    23   14   15 2
    24   15   16 1
    25   15   31 1
    26   16   17 2
    27   16   32 1
    28   17   18 1
    29   17   33 1
    30   19   24 ar
    31   19   20 ar
    32   20   21 ar
    33   20   34 1
    34   21   22 ar
    35   21   35 1
    36   22   23 ar
    37   22   36 1
    38   23   24 ar
    39   23   37 1
    40   24   38 1
@<TRIPOS>MOLECULE
CHEMBL22113
   50    54     0     0     0
SMALL
USER_CHARGES

@<TRIPOS>ATOM
      1 C1          0.0042    1.4606    0.0090 C.3       1 <0>         0.0814
      2 N1          0.0164   -0.0043    0.0011 N.pl3     1 <0>        -0.3202
      3 C2          0.0118   -0.7753   -1.1065 C.2       1 <0>         0.1335
      4 C3          0.0279   -2.0948   -0.6949 C.2       1 <0>        -0.2205
      5 C4          0.0431   -2.0777    0.7765 C.2       1 <0>         0.3064
      6 N2          0.0409   -0.8157    1.1411 N.2       1 <0>        -0.2372
      7 N3          0.0602   -3.2661    1.4367 N.2       1 <0>        -0.4417
      8 C5          0.0634   -4.4057    0.8028 C.2       1 <0>         0.6694
      9 N4          0.0501   -4.5174   -0.5611 N.pl3     1 <0>        -0.3741
     10 C6          0.0322   -3.4010   -1.3562 C.2       1 <0>         0.4086
     11 N5          0.0221   -3.7959   -2.6111 N.2       1 <0>        -0.4912
     12 C7          0.0328   -5.1352   -2.6614 C.2       1 <0>         0.3449
     13 N6          0.0509   -5.6155   -1.4338 N.2       1 <0>        -0.2908
     14 C8          0.0260   -5.9453   -3.8973 C.2       1 <0>         0.0437
     15 C9          0.0313   -7.3033   -3.9611 C.2       1 <0>        -0.1370
     16 C10         0.0214   -7.6454   -5.3279 C.2       1 <0>        -0.2197
     17 C11         0.0107   -6.4914   -6.0237 C.2       1 <0>        -0.0041
     18 O1          0.0076   -5.4665   -5.1562 O.3       1 <0>        -0.1511
     19 N7          0.0816   -5.5664    1.5507 N.am      1 <0>        -0.6467
     20 C12         0.0956   -5.5006    2.8968 C.2       1 <0>         0.7008
     21 O2          0.0921   -4.4194    3.4526 O.2       1 <0>        -0.4888
     22 N8          0.1134   -6.6335    3.6267 N.am      1 <0>        -0.6722
     23 C13         0.2256   -6.5663    5.0220 C.ar      1 <0>         0.1174
     24 C14         0.9442   -7.5359    5.7084 C.ar      1 <0>        -0.0990
     25 C15         1.0548   -7.4689    7.0833 C.ar      1 <0>        -0.1337
     26 C16         0.4478   -6.4334    7.7786 C.ar      1 <0>         0.1175
     27 C17        -0.2707   -5.4645    7.0934 C.ar      1 <0>        -0.1888
     28 C18        -0.3769   -5.5270    5.7179 C.ar      1 <0>        -0.0746
     29 O3          0.5567   -6.3682    9.1324 O.3       1 <0>        -0.3175
     30 C19        -0.0935   -5.2749    9.7837 C.3       1 <0>         0.0260
     31 S1         -0.0113   -0.2041   -2.7732 S.3       1 <0>        -0.0174
     32 C20         1.5029    0.7841   -2.9195 C.3       1 <0>        -0.1578
     33 H1          1.0287    1.8326   -0.0045 H         1 <0>         0.0900
     34 H2         -0.5260    1.8242   -0.8713 H         1 <0>         0.1059
     35 H3         -0.4992    1.8149    0.9085 H         1 <0>         0.1098
     36 H4          0.0416   -7.9876   -3.1257 H         1 <0>         0.1601
     37 H5          0.0223   -8.6437   -5.7401 H         1 <0>         0.1592
     38 H6          0.0014   -6.4052   -7.1002 H         1 <0>         0.2138
     39 H7          0.0845   -6.4291    1.1073 H         1 <0>         0.4283
     40 H8          0.0486   -7.4953    3.1863 H         1 <0>         0.4102
     41 H9          1.4162   -8.3426    5.1672 H         1 <0>         0.1344
     42 H10         1.6137   -8.2231    7.6173 H         1 <0>         0.1367
     43 H11        -0.7436   -4.6590    7.6354 H         1 <0>         0.1328
     44 H12        -0.9322   -4.7700    5.1842 H         1 <0>         0.1454
     45 H13         0.3149   -4.3354    9.4114 H         1 <0>         0.0568
     46 H14        -1.1631   -5.3132    9.5774 H         1 <0>         0.0564
     47 H15         0.0718   -5.3423   10.8589 H         1 <0>         0.1010
     48 H16         1.4713    1.6054   -2.2034 H         1 <0>         0.0830
     49 H17         2.3687    0.1550   -2.7129 H         1 <0>         0.0887
     50 H18         1.5784    1.1858   -3.9299 H         1 <0>         0.1219
@<TRIPOS>BOND
     1    1    2 1
     2    1   33 1
     3    1   34 1
     4    1   35 1
     5    2    6 1
     6    2    3 1
     7    3    4 2
     8    3   31 1
     9    4   10 1
    10    4    5 1
    11    5    6 2
    12    5    7 1
    13    7    8 2
    14    8    9 1
    15    8   19 1
    16    9   13 1
    17    9   10 1
    18   10   11 2
    19   11   12 1
    20   12   13 2
    21   12   14 1
    22   14   18 1
    23   14   15 2
    24   15   16 1
    25   15   36 1
    26   16   17 2
    27   16   37 1
    28   17   18 1
    29   17   38 1
    30   19   20 am
    31   19   39 1
    32   20   21 2
    33   20   22 am
    34   22   23 1
    35   22   40 1
    36   23   28 ar
    37   23   24 ar
    38   24   25 ar
    39   24   41 1
    40   25   26 ar
    41   25   42 1
    42   26   27 ar
    43   26   29 1
    44   27   28 ar
    45   27   43 1
    46   28   44 1
    47   29   30 1
    48   30   45 1
    49   30   46 1
    50   30   47 1
    51   31   32 1
    52   32   48 1
    53   32   49 1
    54   32   50 1
@<TRIPOS>MOLECULE
CHEMBL165760
   41    43     0     0     0
SMALL
USER_CHARGES

@<TRIPOS>ATOM
      1 C1         -0.0184    1.5028    0.0103 C.3       1 <0>        -0.1175
      2 C2          0.0021   -0.0041    0.0020 C.ar      1 <0>        -0.0851
      3 C3          0.0057   -0.6888   -1.1991 C.ar      1 <0>        -0.1186
      4 C4          0.0245   -2.0707   -1.2067 C.ar      1 <0>        -0.1023
      5 C5          0.0400   -2.7685   -0.0132 C.ar      1 <0>        -0.0874
      6 C6          0.0373   -2.0840    1.1875 C.ar      1 <0>        -0.1024
      7 C7          0.0229   -0.7015    1.1951 C.ar      1 <0>        -0.0892
      8 C8          0.0252    0.0449    2.5043 C.3       1 <0>        -0.1164
      9 C9          0.0595   -4.2753   -0.0215 C.3       1 <0>         0.0136
     10 C10         1.4866   -4.7592   -0.0320 C.2       1 <0>         0.2399
     11 N1          2.2118   -4.9957   -1.1214 N.2       1 <0>        -0.5188
     12 C11         3.4148   -5.4067   -0.7753 C.2       1 <0>         0.3281
     13 N2          3.4684   -5.4367    0.5759 N.pl3     1 <0>        -0.4747
     14 H1          4.2259   -5.6978    1.1227 H         1 <0>         0.4415
     15 N3          2.2102   -5.0079    1.0289 N.2       1 <0>        -0.3019
     16 C12         4.5116   -5.7706   -1.6998 C.ar      1 <0>         0.0041
     17 C13         5.7399   -6.1983   -1.1947 C.ar      1 <0>        -0.1366
     18 C14         6.7605   -6.5374   -2.0593 C.ar      1 <0>        -0.0759
     19 C15         6.5701   -6.4548   -3.4264 C.ar      1 <0>        -0.1891
     20 C16         5.3516   -6.0299   -3.9377 C.ar      1 <0>         0.1293
     21 C17         4.3190   -5.6927   -3.0783 C.ar      1 <0>        -0.0976
     22 O1          5.1698   -5.9500   -5.2822 O.3       1 <0>        -0.3123
     23 C18         6.2753   -6.3187   -6.1093 C.3       1 <0>         0.0252
     24 H2          1.0042    1.8801    0.0026 H         1 <0>         0.0695
     25 H3         -0.5455    1.8639   -0.8728 H         1 <0>         0.0665
     26 H4         -0.5286    1.8543    0.9071 H         1 <0>         0.0686
     27 H5         -0.0064   -0.1437   -2.1314 H         1 <0>         0.1224
     28 H6          0.0266   -2.6056   -2.1449 H         1 <0>         0.1257
     29 H7          0.0491   -2.6290    2.1199 H         1 <0>         0.1226
     30 H8         -1.0017    0.2110    2.8297 H         1 <0>         0.0707
     31 H9          0.5542   -0.5412    3.2558 H         1 <0>         0.0653
     32 H10         0.5249    1.0049    2.3743 H         1 <0>         0.0678
     33 H11        -0.4447   -4.6501    0.8693 H         1 <0>         0.0984
     34 H12        -0.4546   -4.6404   -0.9106 H         1 <0>         0.1037
     35 H13         5.8920   -6.2636   -0.1275 H         1 <0>         0.1241
     36 H14         7.7109   -6.8680   -1.6671 H         1 <0>         0.1351
     37 H15         7.3723   -6.7214   -4.0986 H         1 <0>         0.1351
     38 H16         3.3690   -5.3663   -3.4748 H         1 <0>         0.1490
     39 H17         7.1249   -5.6722   -5.8897 H         1 <0>         0.0577
     40 H18         6.5471   -7.3556   -5.9116 H         1 <0>         0.0578
     41 H19         5.9970   -6.2096   -7.1575 H         1 <0>         0.1039
@<TRIPOS>BOND
     1    1    2 1
     2    1   24 1
     3    1   25 1
     4    1   26 1
     5    2    7 ar
     6    2    3 ar
     7    3    4 ar
     8    3   27 1
     9    4    5 ar
    10    4   28 1
    11    5    6 ar
    12    5    9 1
    13    6    7 ar
    14    6   29 1
    15    7    8 1
    16    8   30 1
    17    8   31 1
    18    8   32 1
    19    9   10 1
    20    9   33 1
    21    9   34 1
    22   10   15 2
    23   10   11 1
    24   11   12 2
    25   12   13 1
    26   12   16 1
    27   13   14 1
    28   13   15 1
    29   16   21 ar
    30   16   17 ar
    31   17   18 ar
    32   17   35 1
    33   18   19 ar
    34   18   36 1
    35   19   20 ar
    36   19   37 1
    37   20   21 ar
    38   20   22 1
    39   21   38 1
    40   22   23 1
    41   23   39 1
    42   23   40 1
    43   23   41 1
@<TRIPOS>MOLECULE
CHEMBL466035
   58    61     0     0     0
SMALL
USER_CHARGES

@<TRIPOS>ATOM
      1 C1         -0.0187    1.5258    0.0104 C.3       1 <0>        -0.1488
      2 C2          0.0021   -0.0041    0.0020 C.3       1 <0>        -0.1412
      3 C3          0.7421   -0.5109    1.2415 C.3       1 <0>         0.1190
      4 N1          0.7619   -1.9757    1.2335 N.am      1 <0>        -0.5194
      5 C4         -0.2673   -2.6876    1.8359 C.2       1 <0>         0.1504
      6 C5         -1.4313   -2.3152    2.5139 C.2       1 <0>        -0.1923
      7 C6         -2.0780   -3.4571    2.8938 C.2       1 <0>         0.1445
      8 N2         -1.3522   -4.5363    2.4732 N.pl3     1 <0>        -0.5013
      9 H1         -1.5879   -5.4668    2.6126 H         1 <0>         0.4300
     10 C7         -0.2289   -4.0795    1.8169 C.2       1 <0>        -0.1011
     11 C8          0.8600   -4.7214    1.1843 C.2       1 <0>         0.5865
     12 O1          0.9218   -5.9375    1.1508 O.2       1 <0>        -0.5158
     13 N3          1.8293   -3.9749    0.6179 N.am      1 <0>        -0.5483
     14 C9          1.7753   -2.6322    0.6371 C.2       1 <0>         0.7004
     15 O2          2.6665   -1.9948    0.1096 O.2       1 <0>        -0.5372
     16 C10         2.9580   -4.6397   -0.0379 C.3       1 <0>         0.1131
     17 C11         2.6250   -4.8742   -1.5127 C.3       1 <0>        -0.1371
     18 C12         3.8038   -5.5685   -2.1976 C.3       1 <0>        -0.1473
     19 C13        -3.3538   -3.5159    3.6385 C.ar      1 <0>        -0.0181
     20 C14        -4.0042   -2.3378    4.0087 C.ar      1 <0>        -0.0920
     21 C15        -5.1947   -2.3997    4.7031 C.ar      1 <0>        -0.0836
     22 C16        -5.7439   -3.6261    5.0326 C.ar      1 <0>        -0.0934
     23 C17        -5.1041   -4.7977    4.6690 C.ar      1 <0>        -0.0825
     24 C18        -3.9160   -4.7499    3.9694 C.ar      1 <0>        -0.1132
     25 C19        -7.0447   -3.6861    5.7912 C.3       1 <0>         0.1247
     26 O3         -8.1343   -3.7138    4.8671 O.3       1 <0>        -0.3465
     27 C20        -9.3752   -3.7681    5.3866 C.2       1 <0>         0.6652
     28 O4         -9.5288   -3.7912    6.5917 O.2       1 <0>        -0.5369
     29 N4        -10.4470   -3.7967    4.5700 N.am      1 <0>        -0.6102
     30 C21       -11.7327   -3.8529    5.1083 C.2       1 <0>         0.3432
     31 C22       -12.0584   -3.8793    6.4830 C.2       1 <0>        -0.2857
     32 C23       -13.3975   -3.9326    6.5937 C.2       1 <0>         0.0585
     33 O5        -13.9198   -3.9407    5.3572 O.3       1 <0>        -0.0654
     34 N5        -12.8510   -3.8848    4.4298 N.2       1 <0>        -0.3445
     35 H2          1.0039    1.9031    0.0027 H         1 <0>         0.0594
     36 H3         -0.5459    1.8868   -0.8726 H         1 <0>         0.0611
     37 H4         -0.5289    1.8773    0.9072 H         1 <0>         0.0579
     38 H5         -1.0205   -0.3814    0.0098 H         1 <0>         0.0681
     39 H6          0.5123   -0.3556   -0.8948 H         1 <0>         0.0696
     40 H7          1.7647   -0.1336    1.2338 H         1 <0>         0.1002
     41 H8          0.2319   -0.1594    2.1383 H         1 <0>         0.0928
     42 H9         -1.7609   -1.3044    2.7037 H         1 <0>         0.1598
     43 H10         3.8448   -4.0105    0.0387 H         1 <0>         0.1020
     44 H11         3.1484   -5.5966    0.4481 H         1 <0>         0.1003
     45 H12         1.7383   -5.5034   -1.5894 H         1 <0>         0.0666
     46 H13         2.4346   -3.9173   -1.9988 H         1 <0>         0.0686
     47 H14         3.5665   -5.7355   -3.2483 H         1 <0>         0.0612
     48 H15         4.6905   -4.9393   -2.1210 H         1 <0>         0.0596
     49 H16         3.9942   -6.5254   -1.7116 H         1 <0>         0.0587
     50 H17        -3.5763   -1.3798    3.7525 H         1 <0>         0.1380
     51 H18        -5.6988   -1.4888    4.9905 H         1 <0>         0.1351
     52 H19        -5.5377   -5.7518    4.9298 H         1 <0>         0.1328
     53 H20        -3.4198   -5.6651    3.6822 H         1 <0>         0.1251
     54 H21        -7.0660   -4.5864    6.4052 H         1 <0>         0.0865
     55 H22        -7.1330   -2.8079    6.4309 H         1 <0>         0.0874
     56 H23       -10.3243   -3.7782    3.6080 H         1 <0>         0.4307
     57 H24       -11.3546   -3.8603    7.3019 H         1 <0>         0.1854
     58 H25       -13.9560   -3.9639    7.5175 H         1 <0>         0.2196
@<TRIPOS>BOND
     1    1    2 1
     2    1   35 1
     3    1   36 1
     4    1   37 1
     5    2    3 1
     6    2   38 1
     7    2   39 1
     8    3    4 1
     9    3   40 1
    10    3   41 1
    11    4   14 am
    12    4    5 1
    13    5   10 2
    14    5    6 1
    15    6    7 2
    16    6   42 1
    17    7    8 1
    18    7   19 1
    19    8    9 1
    20    8   10 1
    21   10   11 1
    22   11   12 2
    23   11   13 am
    24   13   14 am
    25   13   16 1
    26   14   15 2
    27   16   17 1
    28   16   43 1
    29   16   44 1
    30   17   18 1
    31   17   45 1
    32   17   46 1
    33   18   47 1
    34   18   48 1
    35   18   49 1
    36   19   24 ar
    37   19   20 ar
    38   20   21 ar
    39   20   50 1
    40   21   22 ar
    41   21   51 1
    42   22   23 ar
    43   22   25 1
    44   23   24 ar
    45   23   52 1
    46   24   53 1
    47   25   26 1
    48   25   54 1
    49   25   55 1
    50   26   27 1
    51   27   28 2
    52   27   29 am
    53   29   30 1
    54   29   56 1
    55   30   34 2
    56   30   31 1
    57   31   32 2
    58   31   57 1
    59   32   33 1
    60   32   58 1
    61   33   34 1
@<TRIPOS>MOLECULE
CHEMBL1094547
   57    62     0     0     0
SMALL
USER_CHARGES

@<TRIPOS>ATOM
      1 C1         -0.0129    1.3859    0.0208 C.ar      1 <0>        -0.0891
      2 C2          1.1706    2.1024    0.0300 C.ar      1 <0>        -0.1328
      3 C3          2.3812    1.4405    0.0202 C.ar      1 <0>        -0.0647
      4 C4          2.4102    0.0462    0.0010 C.ar      1 <0>        -0.0869
      5 C5          1.2138   -0.6705   -0.0082 C.ar      1 <0>        -0.0592
      6 C6          0.0094    0.0028    0.0017 C.ar      1 <0>        -0.1269
      7 C7          3.7065   -0.6705   -0.0101 C.ar      1 <0>         0.3463
      8 C8          3.8547   -1.8943    0.6601 C.ar      1 <0>        -0.3416
      9 C9          5.1072   -2.5377    0.6205 C.ar      1 <0>         0.2930
     10 N1          6.0979   -1.9649   -0.0468 N.ar      1 <0>        -0.5628
     11 C10         5.9177   -0.8044   -0.6691 C.ar      1 <0>         0.6029
     12 N2          4.7562   -0.1696   -0.6616 N.ar      1 <0>        -0.5647
     13 N3          6.9773   -0.2444   -1.3519 N.pl3     1 <0>        -0.8028
     14 C11         5.0116   -3.8011    1.3954 C.ar      1 <0>         0.0228
     15 C12         5.9401   -4.7913    1.6684 C.ar      1 <0>        -0.1425
     16 C13         5.5750   -5.8959    2.4403 C.ar      1 <0>         0.2267
     17 C14         4.2819   -6.0059    2.9363 C.ar      1 <0>        -0.1809
     18 C15         3.3491   -5.0223    2.6681 C.ar      1 <0>         0.0020
     19 C16         3.7034   -3.9175    1.9002 C.ar      1 <0>        -0.1868
     20 C17         2.9386   -2.7290    1.4565 C.2       1 <0>         0.4627
     21 O1          1.7733   -2.4875    1.7036 O.2       1 <0>        -0.4101
     22 N4          6.5081   -6.8890    2.7129 N.pl3     1 <0>        -0.6370
     23 C18         7.8465   -6.8575    2.1030 C.3       1 <0>         0.0946
     24 C19         8.8897   -7.0334    3.2114 C.3       1 <0>        -0.0228
     25 N5          8.5971   -8.2574    3.9678 N.4       1 <0>        -0.3806
     26 C20         7.3074   -8.1232    4.6569 C.3       1 <0>        -0.0226
     27 C21         6.1877   -7.9983    3.6245 C.3       1 <0>         0.0969
     28 C22         9.6581   -8.4843    4.9582 C.3       1 <0>         0.0265
     29 C23         9.4217   -9.8224    5.6614 C.3       1 <0>        -0.2132
     30 C24         9.1386   -9.7901    7.1646 C.3       1 <0>        -0.1682
     31 C25        10.4872  -10.2983    6.6509 C.3       1 <0>        -0.1483
     32 H1         -0.9580    1.9084    0.0331 H         1 <0>         0.1285
     33 H2          1.1468    3.1821    0.0446 H         1 <0>         0.1300
     34 H3          3.3044    2.0009    0.0271 H         1 <0>         0.1295
     35 H4          1.2299   -1.7503   -0.0234 H         1 <0>         0.1340
     36 H5         -0.9177   -0.5511   -0.0050 H         1 <0>         0.1301
     37 H6          7.8350   -0.6970   -1.3719 H         1 <0>         0.4191
     38 H7          6.8648    0.6020   -1.8121 H         1 <0>         0.4232
     39 H8          6.9461   -4.7094    1.2842 H         1 <0>         0.1391
     40 H9          4.0050   -6.8626    3.5329 H         1 <0>         0.1392
     41 H10         2.3447   -5.1111    3.0549 H         1 <0>         0.1463
     42 H11         7.9390   -7.6687    1.3808 H         1 <0>         0.0940
     43 H12         7.9994   -5.9003    1.6046 H         1 <0>         0.1304
     44 H13         9.8823   -7.1090    2.7675 H         1 <0>         0.1434
     45 H14         8.8557   -6.1748    3.8820 H         1 <0>         0.1341
     46 H15         7.1341   -9.0019    5.2782 H         1 <0>         0.1445
     47 H16         7.3213   -7.2317    5.2838 H         1 <0>         0.1331
     48 H17         5.2445   -7.7949    4.1315 H         1 <0>         0.1300
     49 H18         6.1099   -8.9266    3.0585 H         1 <0>         0.0924
     50 H19        10.6255   -8.5034    4.4564 H         1 <0>         0.1343
     51 H20         9.6463   -7.6801    5.6939 H         1 <0>         0.1292
     52 H21         8.9105  -10.5810    5.0688 H         1 <0>         0.1252
     53 H22         9.1207   -8.8156    7.6526 H         1 <0>         0.1059
     54 H23         8.4408  -10.5276    7.5613 H         1 <0>         0.1107
     55 H24        10.6766  -11.3701    6.7096 H         1 <0>         0.1128
     56 H25        11.3565   -9.6581    6.8010 H         1 <0>         0.1078
     57 H26         8.5585   -9.0418    3.3343 H         1 <0>         0.4234
@<TRIPOS>BOND
     1    1    6 ar
     2    1    2 ar
     3    1   32 1
     4    2    3 ar
     5    2   33 1
     6    3    4 ar
     7    3   34 1
     8    4    5 ar
     9    4    7 1
    10    5    6 ar
    11    5   35 1
    12    6   36 1
    13    7   12 ar
    14    7    8 ar
    15    8   20 1
    16    8    9 ar
    17    9   10 ar
    18    9   14 1
    19   10   11 ar
    20   11   12 ar
    21   11   13 1
    22   13   37 1
    23   13   38 1
    24   14   19 ar
    25   14   15 ar
    26   15   16 ar
    27   15   39 1
    28   16   17 ar
    29   16   22 1
    30   17   18 ar
    31   17   40 1
    32   18   19 ar
    33   18   41 1
    34   19   20 1
    35   20   21 2
    36   22   27 1
    37   22   23 1
    38   23   24 1
    39   23   42 1
    40   23   43 1
    41   24   25 1
    42   24   44 1
    43   24   45 1
    44   25   26 1
    45   25   28 1
    46   25   57 1
    47   26   27 1
    48   26   46 1
    49   26   47 1
    50   27   48 1
    51   27   49 1
    52   28   29 1
    53   28   50 1
    54   28   51 1
    55   29   31 1
    56   29   30 1
    57   29   52 1
    58   30   31 1
    59   30   53 1
    60   30   54 1
    61   31   55 1
    62   31   56 1
@<TRIPOS>MOLECULE
CHEMBL245848
   59    64     0     0     0
SMALL
USER_CHARGES

@<TRIPOS>ATOM
      1 C1          1.1695   -0.8282   -0.0012 C.3       1 <0>         0.0292
      2 O1          0.0021   -0.0041   -0.0007 O.3       1 <0>        -0.3218
      3 C2         -1.2012   -0.6379    0.0083 C.ar      1 <0>         0.0692
      4 C3         -1.2544   -2.0239    0.0222 C.ar      1 <0>        -0.1568
      5 C4         -2.4759   -2.6683    0.0313 C.ar      1 <0>        -0.1603
      6 C5         -3.6509   -1.9284    0.0266 C.ar      1 <0>         0.1870
      7 C6         -3.5967   -0.5409    0.0126 C.ar      1 <0>        -0.1599
      8 C7         -2.3743    0.1020    0.0092 C.ar      1 <0>        -0.1005
      9 N1         -4.8890   -2.5806    0.0353 N.pl3     1 <0>        -0.6337
     10 C8         -6.1423   -1.8196    0.1498 C.3       1 <0>         0.1282
     11 C9         -7.0840   -2.2604   -0.9758 C.3       1 <0>         0.0414
     12 N2         -7.2383   -3.7207   -0.9371 N.3       1 <0>        -0.5308
     13 C10        -5.9592   -4.3985   -1.1866 C.3       1 <0>         0.0346
     14 C11        -4.9717   -4.0449   -0.0757 C.3       1 <0>         0.1288
     15 C12        -8.2649   -4.1670   -1.8884 C.3       1 <0>         0.0407
     16 C13        -8.5750   -5.6458   -1.6476 C.3       1 <0>         0.1125
     17 N3         -9.5988   -6.0909   -2.5963 N.pl3     1 <0>        -0.4507
     18 C14       -10.9420   -6.1382   -2.3698 C.2       1 <0>         0.2327
     19 N4        -11.5522   -6.5842   -3.4306 N.2       1 <0>        -0.4324
     20 C15       -10.6420   -6.8478   -4.3946 C.2       1 <0>        -0.0249
     21 C16        -9.3817   -6.5310   -3.8778 C.2       1 <0>         0.2877
     22 N5         -8.2912   -6.6945   -4.6358 N.2       1 <0>        -0.5453
     23 C17        -8.3555   -7.1444   -5.8656 C.2       1 <0>         0.6705
     24 N6         -9.5371   -7.4774   -6.4591 N.pl3     1 <0>        -0.3631
     25 C18       -10.7121   -7.3543   -5.7629 C.2       1 <0>         0.3976
     26 N7        -11.6935   -7.7384   -6.5553 N.2       1 <0>        -0.4994
     27 C19       -11.1937   -8.1214   -7.7363 C.2       1 <0>         0.3458
     28 N8         -9.8823   -7.9684   -7.7247 N.2       1 <0>        -0.2953
     29 C20       -11.9870   -8.6160   -8.8811 C.2       1 <0>         0.0431
     30 C21       -11.4913   -9.0129  -10.0830 C.2       1 <0>        -0.1374
     31 C22       -12.5943   -9.4036  -10.8679 C.2       1 <0>        -0.2202
     32 C23       -13.6973   -9.2277  -10.1141 C.2       1 <0>        -0.0039
     33 O2        -13.3262   -8.7573   -8.9125 O.3       1 <0>        -0.1515
     34 N9         -7.1889   -7.2852   -6.5832 N.pl3     1 <0>        -0.8069
     35 H1          2.0590   -0.1982   -0.0087 H         1 <0>         0.0980
     36 H2          1.1739   -1.4524    0.8924 H         1 <0>         0.0528
     37 H3          1.1660   -1.4626   -0.8875 H         1 <0>         0.0523
     38 H4         -0.3404   -2.5992    0.0256 H         1 <0>         0.1268
     39 H5         -2.5171   -3.7475    0.0418 H         1 <0>         0.1245
     40 H6         -4.5101    0.0353    0.0089 H         1 <0>         0.1292
     41 H7         -2.3320    1.1811    0.0032 H         1 <0>         0.1301
     42 H8         -6.6063   -2.0212    1.1153 H         1 <0>         0.0713
     43 H9         -5.9335   -0.7539    0.0562 H         1 <0>         0.0875
     44 H10        -8.0572   -1.7881   -0.8418 H         1 <0>         0.0880
     45 H11        -6.6650   -1.9643   -1.9375 H         1 <0>         0.0409
     46 H12        -6.1166   -5.4770   -1.2054 H         1 <0>         0.0872
     47 H13        -5.5558   -4.0727   -2.1454 H         1 <0>         0.0419
     48 H14        -3.9892   -4.4498   -0.3184 H         1 <0>         0.0854
     49 H15        -5.3209   -4.4645    0.8677 H         1 <0>         0.0698
     50 H16        -9.1713   -3.5782   -1.7476 H         1 <0>         0.0862
     51 H17        -7.8994   -4.0336   -2.9066 H         1 <0>         0.0452
     52 H18        -7.6686   -6.2347   -1.7884 H         1 <0>         0.0976
     53 H19        -8.9405   -5.7793   -0.6294 H         1 <0>         0.1137
     54 H20       -11.4274   -5.8498   -1.4491 H         1 <0>         0.2294
     55 H21       -10.4528   -9.0259  -10.3792 H         1 <0>         0.1601
     56 H22       -12.5619   -9.7735  -11.8821 H         1 <0>         0.1596
     57 H23       -14.7111   -9.4350  -10.4235 H         1 <0>         0.2142
     58 H24        -6.3389   -7.0530   -6.1775 H         1 <0>         0.4285
     59 H25        -7.2170   -7.6165   -7.4944 H         1 <0>         0.4256
@<TRIPOS>BOND
     1    1    2 1
     2    1   35 1
     3    1   36 1
     4    1   37 1
     5    2    3 1
     6    3    8 ar
     7    3    4 ar
     8    4    5 ar
     9    4   38 1
    10    5    6 ar
    11    5   39 1
    12    6    7 ar
    13    6    9 1
    14    7    8 ar
    15    7   40 1
    16    8   41 1
    17    9   14 1
    18    9   10 1
    19   10   11 1
    20   10   42 1
    21   10   43 1
    22   11   12 1
    23   11   44 1
    24   11   45 1
    25   12   13 1
    26   12   15 1
    27   13   14 1
    28   13   46 1
    29   13   47 1
    30   14   48 1
    31   14   49 1
    32   15   16 1
    33   15   50 1
    34   15   51 1
    35   16   17 1
    36   16   52 1
    37   16   53 1
    38   17   21 1
    39   17   18 1
    40   18   19 2
    41   18   54 1
    42   19   20 1
    43   20   25 1
    44   20   21 2
    45   21   22 1
    46   22   23 2
    47   23   24 1
    48   23   34 1
    49   24   28 1
    50   24   25 1
    51   25   26 2
    52   26   27 1
    53   27   28 2
    54   27   29 1
    55   29   33 1
    56   29   30 2
    57   30   31 1
    58   30   55 1
    59   31   32 2
    60   31   56 1
    61   32   33 1
    62   32   57 1
    63   34   58 1
    64   34   59 1
@<TRIPOS>MOLECULE
CHEMBL514939
   64    68     0     0     0
SMALL
USER_CHARGES

@<TRIPOS>ATOM
      1 C1         -0.0173    1.4248    0.0099 C.3       1 <0>         0.0327
      2 O1          0.0021   -0.0041    0.0020 O.3       1 <0>        -0.3771
      3 C2          0.6518   -0.5703   -1.1379 C.3       1 <0>         0.0377
      4 C3          0.6131   -2.0967   -1.0411 C.3       1 <0>         0.1232
      5 N1         -0.7759   -2.5559   -1.1188 N.pl3     1 <0>        -0.5853
      6 C4         -1.3725   -2.8680   -2.4200 C.3       1 <0>         0.1294
      7 C5         -1.1353   -4.3433   -2.7490 C.3       1 <0>         0.0414
      8 N2         -1.7335   -4.6562   -4.0537 N.3       1 <0>        -0.5305
      9 C6         -3.1964   -4.5323   -4.0055 C.3       1 <0>         0.0381
     10 C7         -3.7658   -4.6877   -5.4196 C.3       1 <0>         0.1496
     11 N3         -3.2670   -5.9491   -5.9881 N.pl3     1 <0>        -0.6755
     12 C8         -1.8194   -6.2062   -5.9478 C.3       1 <0>         0.1505
     13 C9         -1.3266   -5.9910   -4.5128 C.3       1 <0>         0.0413
     14 C10        -4.1466   -6.8801   -6.5531 C.ar      1 <0>         0.1290
     15 C11        -4.4543   -6.8143   -7.9050 C.ar      1 <0>        -0.0665
     16 C12        -5.3227   -7.7340   -8.4609 C.ar      1 <0>        -0.1570
     17 C13        -5.8870   -8.7213   -7.6710 C.ar      1 <0>         0.1271
     18 C14        -5.5829   -8.7900   -6.3220 C.ar      1 <0>        -0.1897
     19 C15        -4.7091   -7.8758   -5.7622 C.ar      1 <0>         0.1206
     20 F1         -4.4071   -7.9464   -4.4473 F         1 <0>        -0.1265
     21 F2         -6.7361   -9.6189   -8.2174 F         1 <0>        -0.1304
     22 C16        -1.5264   -2.6952    0.0398 C.2       1 <0>         0.4772
     23 C17        -0.9637   -2.3949    1.2655 C.2       1 <0>        -0.2878
     24 C18        -1.7510   -2.5467    2.4193 C.2       1 <0>         0.3789
     25 N4         -1.5291   -2.3528    3.7106 N.2       1 <0>        -0.5423
     26 C19        -2.6331   -2.6522    4.4043 C.2       1 <0>         0.3544
     27 N5         -3.5808   -3.0427    3.5722 N.2       1 <0>        -0.3375
     28 N6         -3.0434   -2.9862    2.2801 N.pl3     1 <0>        -0.3769
     29 C20        -3.5361   -3.2649    1.0422 C.2       1 <0>         0.6773
     30 N7         -2.7954   -3.1149   -0.0334 N.2       1 <0>        -0.5879
     31 N8         -4.8323   -3.7045    0.9142 N.pl3     1 <0>        -0.8096
     32 C21        -2.7703   -2.5601    5.8730 C.2       1 <0>         0.0426
     33 C22        -1.8056   -2.1544    6.7405 C.2       1 <0>        -0.1316
     34 C23        -2.3665   -2.2205    8.0313 C.2       1 <0>        -0.2188
     35 C24        -3.6329   -2.6588    7.8894 C.2       1 <0>        -0.0127
     36 O2         -3.8750   -2.8581    6.5839 O.3       1 <0>        -0.1615
     37 H1          1.0053    1.8021    0.0021 H         1 <0>         0.0415
     38 H2         -0.5445    1.7859   -0.8732 H         1 <0>         0.0381
     39 H3         -0.5275    1.7763    0.9067 H         1 <0>         0.0846
     40 H4          0.1385   -0.2506   -2.0447 H         1 <0>         0.0529
     41 H5          1.6883   -0.2344   -1.1694 H         1 <0>         0.0623
     42 H6          1.1847   -2.5275   -1.8631 H         1 <0>         0.1017
     43 H7          1.0473   -2.4117   -0.0922 H         1 <0>         0.0943
     44 H8         -2.4440   -2.6713   -2.3850 H         1 <0>         0.0884
     45 H9         -0.9137   -2.2460   -3.1886 H         1 <0>         0.0841
     46 H10        -0.0638   -4.5400   -2.7840 H         1 <0>         0.0740
     47 H11        -1.5940   -4.9653   -1.9804 H         1 <0>         0.0394
     48 H12        -3.6063   -5.3099   -3.3609 H         1 <0>         0.0387
     49 H13        -3.4656   -3.5527   -3.6106 H         1 <0>         0.0848
     50 H14        -4.8547   -4.7113   -5.3754 H         1 <0>         0.0712
     51 H15        -3.4398   -3.8525   -6.0394 H         1 <0>         0.0631
     52 H16        -1.6213   -7.2338   -6.2527 H         1 <0>         0.0716
     53 H17        -1.3062   -5.5169   -6.6184 H         1 <0>         0.0638
     54 H18        -0.2398   -6.0693   -4.4859 H         1 <0>         0.0812
     55 H19        -1.7625   -6.7483   -3.8612 H         1 <0>         0.0376
     56 H20        -4.0154   -6.0442   -8.5220 H         1 <0>         0.1446
     57 H21        -5.5619   -7.6825   -9.5128 H         1 <0>         0.1445
     58 H22        -6.0247   -9.5605   -5.7076 H         1 <0>         0.1479
     59 H23         0.0580   -2.0516    1.3351 H         1 <0>         0.1617
     60 H24        -5.3875   -3.8137    1.7020 H         1 <0>         0.4242
     61 H25        -5.1918   -3.9055    0.0359 H         1 <0>         0.4263
     62 H26        -0.8028   -1.8421    6.4890 H         1 <0>         0.1621
     63 H27        -1.8745   -1.9680    8.9590 H         1 <0>         0.1581
     64 H28        -4.3372   -2.8197    8.6922 H         1 <0>         0.2117
@<TRIPOS>BOND
     1    1    2 1
     2    1   37 1
     3    1   38 1
     4    1   39 1
     5    2    3 1
     6    3    4 1
     7    3   40 1
     8    3   41 1
     9    4    5 1
    10    4   42 1
    11    4   43 1
    12    5    6 1
    13    5   22 1
    14    6    7 1
    15    6   44 1
    16    6   45 1
    17    7    8 1
    18    7   46 1
    19    7   47 1
    20    8   13 1
    21    8    9 1
    22    9   10 1
    23    9   48 1
    24    9   49 1
    25   10   11 1
    26   10   50 1
    27   10   51 1
    28   11   12 1
    29   11   14 1
    30   12   13 1
    31   12   52 1
    32   12   53 1
    33   13   54 1
    34   13   55 1
    35   14   19 ar
    36   14   15 ar
    37   15   16 ar
    38   15   56 1
    39   16   17 ar
    40   16   57 1
    41   17   18 ar
    42   17   21 1
    43   18   19 ar
    44   18   58 1
    45   19   20 1
    46   22   30 1
    47   22   23 2
    48   23   24 1
    49   23   59 1
    50   24   28 1
    51   24   25 2
    52   25   26 1
    53   26   27 2
    54   26   32 1
    55   27   28 1
    56   28   29 1
    57   29   30 2
    58   29   31 1
    59   31   60 1
    60   31   61 1
    61   32   36 1
    62   32   33 2
    63   33   34 1
    64   33   62 1
    65   34   35 2
    66   34   63 1
    67   35   36 1
    68   35   64 1
@<TRIPOS>MOLECULE
CHEMBL604019
   58    61     0     0     0
SMALL
USER_CHARGES

@<TRIPOS>ATOM
      1 C1         -0.0187    1.5258    0.0104 C.3       1 <0>        -0.1670
      2 C2          0.0021   -0.0041    0.0020 C.3       1 <0>         0.1128
      3 N1          0.6878   -0.4765   -1.2033 N.am      1 <0>        -0.7283
      4 C3          0.8268   -1.7986   -1.4250 C.2       1 <0>         0.4961
      5 O1          0.3843   -2.5972   -0.6267 O.2       1 <0>        -0.5069
      6 C4          1.5322   -2.2846   -2.6649 C.3       1 <0>         0.0428
      7 H1          2.5301   -1.8492   -2.7172 H         1 <0>         0.1287
      8 C5          0.7217   -1.8886   -3.9178 C.3       1 <0>         0.0518
      9 H2         -0.3249   -1.7189   -3.6651 H         1 <0>         0.0963
     10 C6          0.8760   -3.1431   -4.8202 C.3       1 <0>         0.0778
     11 H3          0.0208   -3.2552   -5.4867 H         1 <0>         0.1036
     12 C7          0.9061   -4.2690   -3.7562 C.3       1 <0>         0.3202
     13 O2          1.6263   -3.7137   -2.6418 O.3       1 <0>        -0.3326
     14 N2          1.6076   -5.4441   -4.2789 N.pl3     1 <0>        -0.4597
     15 C8          2.9233   -5.7482   -4.0911 C.2       1 <0>         0.2897
     16 N3          3.2128   -6.8643   -4.6950 N.2       1 <0>        -0.4645
     17 C9          2.1055   -7.3469   -5.3071 C.ar      1 <0>        -0.0967
     18 C10         1.0597   -6.4443   -5.0428 C.ar      1 <0>         0.3113
     19 N4         -0.1488   -6.6929   -5.5312 N.ar      1 <0>        -0.5396
     20 C11        -0.3723   -7.7795   -6.2576 C.ar      1 <0>         0.4985
     21 N5          0.5864   -8.6608   -6.5286 N.ar      1 <0>        -0.5732
     22 C12         1.8249   -8.4840   -6.0863 C.ar      1 <0>         0.5139
     23 N6          2.8159   -9.4069   -6.3721 N.pl3     1 <0>        -0.8146
     24 C13        -1.6903   -8.0123   -6.7669 C.1       1 <0>        -0.1109
     25 C14        -2.7708   -8.2031   -7.1844 C.1       1 <0>        -0.0817
     26 C15        -4.1256   -8.4424   -7.7080 C.3       1 <0>         0.1639
     27 N7         -4.1395   -9.6941   -8.4768 N.3       1 <0>        -0.5367
     28 C16        -3.3084   -9.5806   -9.6821 C.3       1 <0>         0.0521
     29 C17        -3.2289  -10.9410  -10.3785 C.3       1 <0>        -0.1164
     30 C18        -4.6409  -11.4016  -10.7509 C.3       1 <0>        -0.1234
     31 C19        -5.4992  -11.4650   -9.4845 C.3       1 <0>        -0.1172
     32 C20        -5.5129  -10.0894   -8.8140 C.3       1 <0>         0.0557
     33 O3          2.0984   -3.0988   -5.5591 O.3       1 <0>        -0.5333
     34 O4          1.2850   -0.7342   -4.5440 O.3       1 <0>        -0.5368
     35 H4          1.0039    1.9031    0.0027 H         1 <0>         0.0639
     36 H5         -0.5459    1.8868   -0.8726 H         1 <0>         0.0631
     37 H6         -0.5289    1.8773    0.9072 H         1 <0>         0.0783
     38 H7          0.5293   -0.3651    0.8851 H         1 <0>         0.0717
     39 H8         -1.0205   -0.3814    0.0098 H         1 <0>         0.0712
     40 H9          1.0417    0.1622   -1.8418 H         1 <0>         0.3971
     41 H10        -0.1080   -4.5346   -3.4576 H         1 <0>         0.1313
     42 H11         3.6225   -5.1506   -3.5251 H         1 <0>         0.2224
     43 H12         3.7152   -9.2733   -6.0341 H         1 <0>         0.4212
     44 H13         2.6110  -10.1874   -6.9104 H         1 <0>         0.4117
     45 H14        -4.8278   -8.5181   -6.8778 H         1 <0>         0.1081
     46 H15        -4.4163   -7.6151   -8.3554 H         1 <0>         0.0682
     47 H16        -3.7502   -8.8507  -10.3604 H         1 <0>         0.0359
     48 H17        -2.3059   -9.2564   -9.4028 H         1 <0>         0.0784
     49 H18        -2.6249  -10.8529  -11.2815 H         1 <0>         0.0668
     50 H19        -2.7745  -11.6683   -9.7056 H         1 <0>         0.0711
     51 H20        -5.0810  -10.6947  -11.4542 H         1 <0>         0.0591
     52 H21        -4.5929  -12.3899  -11.2083 H         1 <0>         0.0646
     53 H22        -6.5173  -11.7511   -9.7488 H         1 <0>         0.0688
     54 H23        -5.0806  -12.2005   -8.7975 H         1 <0>         0.0721
     55 H24        -6.1116  -10.1347   -7.9043 H         1 <0>         0.0791
     56 H25        -5.9444   -9.3570   -9.4964 H         1 <0>         0.0373
     57 H26         2.1670   -2.3453   -6.1612 H         1 <0>         0.3955
     58 H27         1.2895    0.0542   -3.9840 H         1 <0>         0.3876
@<TRIPOS>BOND
     1    1    2 1
     2    1   35 1
     3    1   36 1
     4    1   37 1
     5    2    3 1
     6    2   38 1
     7    2   39 1
     8    3    4 am
     9    3   40 1
    10    4    5 2
    11    4    6 1
    12    6    7 1
    13    6   13 1
    14    6    8 1
    15    8    9 1
    16    8   10 1
    17    8   34 1
    18   10   11 1
    19   10   12 1
    20   10   33 1
    21   12   13 1
    22   12   14 1
    23   12   41 1
    24   14   18 1
    25   14   15 1
    26   15   16 2
    27   15   42 1
    28   16   17 1
    29   17   22 ar
    30   17   18 ar
    31   18   19 ar
    32   19   20 ar
    33   20   21 ar
    34   20   24 1
    35   21   22 ar
    36   22   23 1
    37   23   43 1
    38   23   44 1
    39   24   25 3
    40   25   26 1
    41   26   27 1
    42   26   45 1
    43   26   46 1
    44   27   32 1
    45   27   28 1
    46   28   29 1
    47   28   47 1
    48   28   48 1
    49   29   30 1
    50   29   49 1
    51   29   50 1
    52   30   31 1
    53   30   51 1
    54   30   52 1
    55   31   32 1
    56   31   53 1
    57   31   54 1
    58   32   55 1
    59   32   56 1
    60   33   57 1
    61   34   58 1
@<TRIPOS>MOLECULE
CHEMBL222589
   52    56     0     0     0
SMALL
USER_CHARGES

@<TRIPOS>ATOM
      1 C1         -0.0162    1.3433    0.0094 C.2       1 <0>        -0.2204
      2 C2          1.3252    1.7744   -0.0011 C.2       1 <0>        -0.1211
      3 C3          2.0963    0.6547   -0.0144 C.2       1 <0>         0.0254
      4 O1          1.2798   -0.4167   -0.0124 O.3       1 <0>        -0.1581
      5 C4          0.0021   -0.0041    0.0020 C.2       1 <0>         0.0044
      6 C5          3.5735    0.6192   -0.0292 C.2       1 <0>         0.3356
      7 N1          4.3782    1.6975   -0.0257 N.2       1 <0>        -0.4719
      8 C6          5.6284    1.3133   -0.0438 C.2       1 <0>         0.4925
      9 N2          6.7827    2.0136   -0.0426 N.2       1 <0>        -0.5211
     10 C7          7.9149    1.3544   -0.2245 C.2       1 <0>         0.6593
     11 N3          7.9251    0.0030   -0.4737 N.pl3     1 <0>        -0.7074
     12 C8          6.8335   -0.7612   -0.0614 C.2       1 <0>         0.6289
     13 N4          5.6350   -0.0666   -0.0535 N.pl3     1 <0>        -0.3818
     14 N5          4.3125   -0.4776   -0.0421 N.2       1 <0>        -0.2382
     15 N6          6.9320   -2.0133    0.2840 N.2       1 <0>        -0.6457
     16 N7          9.1029    2.0335   -0.1638 N.pl3     1 <0>        -0.6031
     17 C9         10.3866    1.3423   -0.3661 C.3       1 <0>         0.0905
     18 C10        11.3005    1.6893    0.8113 C.3       1 <0>        -0.0201
     19 N8         11.4311    3.1501    0.9330 N.4       1 <0>        -0.3793
     20 C11        12.3915    3.4256    2.0122 C.3       1 <0>        -0.0015
     21 C12        12.6152    4.9311    2.1496 C.3       1 <0>        -0.1425
     22 H1         12.9941    5.3316    1.2093 H         1 <0>         0.1213
     23 C13        11.2787    5.5987    2.4911 C.3       1 <0>        -0.1488
     24 C14        10.2734    5.2712    1.3860 C.3       1 <0>        -0.1388
     25 C15        10.1305    3.7519    1.2449 C.3       1 <0>         0.0121
     26 H2          9.7485    3.3332    2.1760 H         1 <0>         0.1500
     27 C16         9.1400    3.4780    0.0994 C.3       1 <0>         0.1094
     28 C17        13.6263    5.1997    3.2660 C.3       1 <0>         0.0005
     29 N9         13.9298    6.6361    3.3166 N.4       1 <0>        -0.6383
     30 H3         -0.8931    1.9736    0.0252 H         1 <0>         0.1625
     31 H4          1.6735    2.7967    0.0011 H         1 <0>         0.1626
     32 H5         -0.8667   -0.6456    0.0069 H         1 <0>         0.2170
     33 H6          7.7947   -2.4563    0.2614 H         1 <0>         0.3692
     34 H7         10.2237    0.2651   -0.4012 H         1 <0>         0.1279
     35 H8         10.8427    1.6772   -1.2978 H         1 <0>         0.1149
     36 H9         10.8752    1.2862    1.7304 H         1 <0>         0.1411
     37 H10        12.2846    1.2505    0.6469 H         1 <0>         0.1556
     38 H11        12.0025    3.0313    2.9510 H         1 <0>         0.1416
     39 H12        13.3399    2.9391    1.7844 H         1 <0>         0.1452
     40 H13        10.9121    5.2172    3.4440 H         1 <0>         0.1021
     41 H14        11.4145    6.6783    2.5540 H         1 <0>         0.0972
     42 H15         9.3052    5.7042    1.6374 H         1 <0>         0.1316
     43 H16        10.6225    5.6913    0.4427 H         1 <0>         0.1000
     44 H17         9.4633    4.0037   -0.7990 H         1 <0>         0.1059
     45 H18         8.1461    3.8217    0.3858 H         1 <0>         0.1557
     46 H19        13.2060    4.8834    4.2207 H         1 <0>         0.1468
     47 H20        14.5417    4.6416    3.0692 H         1 <0>         0.1477
     48 H21        14.5966    6.8133    4.0528 H         1 <0>         0.4514
     49 H22        14.3189    6.9290    2.4328 H         1 <0>         0.4403
     50 H23        13.0825    7.1527    3.4987 H         1 <0>         0.4378
     51 H24         8.6760   -0.4109   -0.9272 H         1 <0>         0.4279
     52 H25        11.7789    3.5306    0.0656 H         1 <0>         0.4265
@<TRIPOS>BOND
     1    1    5 2
     2    1    2 1
     3    1   30 1
     4    2    3 2
     5    2   31 1
     6    3    4 1
     7    3    6 1
     8    4    5 1
     9    5   32 1
    10    6   14 2
    11    6    7 1
    12    7    8 2
    13    8   13 1
    14    8    9 1
    15    9   10 2
    16   10   11 1
    17   10   16 1
    18   11   12 1
    19   11   51 1
    20   12   13 1
    21   12   15 2
    22   13   14 1
    23   15   33 1
    24   16   27 1
    25   16   17 1
    26   17   18 1
    27   17   34 1
    28   17   35 1
    29   18   19 1
    30   18   36 1
    31   18   37 1
    32   19   25 1
    33   19   20 1
    34   19   52 1
    35   20   21 1
    36   20   38 1
    37   20   39 1
    38   21   22 1
    39   21   23 1
    40   21   28 1
    41   23   24 1
    42   23   40 1
    43   23   41 1
    44   24   25 1
    45   24   42 1
    46   24   43 1
    47   25   26 1
    48   25   27 1
    49   27   44 1
    50   27   45 1
    51   28   29 1
    52   28   46 1
    53   28   47 1
    54   29   48 1
    55   29   49 1
    56   29   50 1
@<TRIPOS>MOLECULE
CHEMBL248299
   44    48     0     0     0
SMALL
USER_CHARGES

@<TRIPOS>ATOM
      1 C1         -0.0162    1.3433    0.0094 C.2       1 <0>        -0.2201
      2 C2          1.3252    1.7743   -0.0011 C.2       1 <0>        -0.1374
      3 C3          2.0962    0.6548   -0.0144 C.2       1 <0>         0.0432
      4 O1          1.2797   -0.4166   -0.0124 O.3       1 <0>        -0.1516
      5 C4          0.0021   -0.0041    0.0020 C.2       1 <0>        -0.0041
      6 C5          3.5737    0.6193   -0.0292 C.2       1 <0>         0.3455
      7 N1          4.3216   -0.4904   -0.0476 N.2       1 <0>        -0.4996
      8 C6          5.5988   -0.1630   -0.0576 C.2       1 <0>         0.3976
      9 C7          6.8477   -0.9205   -0.0777 C.2       1 <0>        -0.0261
     10 C8          8.0482   -0.2033   -0.0831 C.2       1 <0>         0.2906
     11 N2          8.0241    1.1346   -0.0704 N.2       1 <0>        -0.5430
     12 C9          6.9027    1.8137   -0.0530 C.2       1 <0>         0.6709
     13 N3          5.6823    1.2057   -0.0451 N.pl3     1 <0>        -0.3631
     14 N4          4.3634    1.6772   -0.0320 N.2       1 <0>        -0.2949
     15 N5          6.9595    3.1893   -0.0404 N.pl3     1 <0>        -0.8062
     16 N6          9.0487   -1.1423   -0.1025 N.pl3     1 <0>        -0.4511
     17 C10         8.4571   -2.3702   -0.1084 C.2       1 <0>         0.2293
     18 N7          7.1617   -2.2351   -0.0938 N.2       1 <0>        -0.4312
     19 C11        10.4889   -0.8741   -0.1146 C.3       1 <0>         0.1131
     20 C12        10.9820   -0.6711    1.3194 C.3       1 <0>         0.0410
     21 N8         12.4261   -0.4022    1.3072 N.3       1 <0>        -0.5325
     22 C13        13.1775   -1.5800    0.8495 C.3       1 <0>         0.0097
     23 C14        14.6688   -1.2378    0.7950 C.3       1 <0>         0.0629
     24 O2         15.0972   -0.7896    2.0838 O.3       1 <0>        -0.3839
     25 C15        14.3868    0.3566    2.5602 C.3       1 <0>         0.0634
     26 C16        12.8927    0.0305    2.6325 C.3       1 <0>         0.0192
     27 H1         -0.8931    1.9736    0.0252 H         1 <0>         0.1595
     28 H2          1.6736    2.7966    0.0011 H         1 <0>         0.1602
     29 H3         -0.8667   -0.6456    0.0072 H         1 <0>         0.2141
     30 H4          7.8188    3.6393   -0.0444 H         1 <0>         0.4293
     31 H5          6.1402    3.7084   -0.0274 H         1 <0>         0.4255
     32 H6          8.9832   -3.3133   -0.1235 H         1 <0>         0.2274
     33 H7         11.0121   -1.7190   -0.5626 H         1 <0>         0.1027
     34 H8         10.6860    0.0257   -0.6974 H         1 <0>         0.1082
     35 H9         10.4589    0.1737    1.7674 H         1 <0>         0.0865
     36 H10        10.7849   -1.5709    1.9022 H         1 <0>         0.0463
     37 H11        13.0186   -2.4054    1.5434 H         1 <0>         0.0483
     38 H12        12.8336   -1.8676   -0.1441 H         1 <0>         0.0887
     39 H13        15.2356   -2.1245    0.5111 H         1 <0>         0.1009
     40 H14        14.8346   -0.4487    0.0616 H         1 <0>         0.0620
     41 H15        14.7496    0.6230    3.5529 H         1 <0>         0.1010
     42 H16        14.5444    1.1920    1.8781 H         1 <0>         0.0623
     43 H17        12.3408    0.9186    2.9406 H         1 <0>         0.0889
     44 H18        12.7292   -0.7692    3.3549 H         1 <0>         0.0466
@<TRIPOS>BOND
     1    1    5 2
     2    1    2 1
     3    1   27 1
     4    2    3 2
     5    2   28 1
     6    3    4 1
     7    3    6 1
     8    4    5 1
     9    5   29 1
    10    6   14 2
    11    6    7 1
    12    7    8 2
    13    8   13 1
    14    8    9 1
    15    9   18 1
    16    9   10 2
    17   10   11 1
    18   10   16 1
    19   11   12 2
    20   12   13 1
    21   12   15 1
    22   13   14 1
    23   15   30 1
    24   15   31 1
    25   16   17 1
    26   16   19 1
    27   17   18 2
    28   17   32 1
    29   19   20 1
    30   19   33 1
    31   19   34 1
    32   20   21 1
    33   20   35 1
    34   20   36 1
    35   21   26 1
    36   21   22 1
    37   22   23 1
    38   22   37 1
    39   22   38 1
    40   23   24 1
    41   23   39 1
    42   23   40 1
    43   24   25 1
    44   25   26 1
    45   25   41 1
    46   25   42 1
    47   26   43 1
    48   26   44 1
@<TRIPOS>MOLECULE
CHEMBL1088665
   55    59     0     0     0
SMALL
USER_CHARGES

@<TRIPOS>ATOM
      1 C1         -0.0178    1.4648    0.0101 C.3       1 <0>        -0.0459
      2 N1          0.0021   -0.0041    0.0020 N.4       1 <0>        -0.3895
      3 C2         -1.3761   -0.5122    0.0107 C.3       1 <0>         0.0025
      4 C3         -1.3560   -2.0421   -0.0167 C.3       1 <0>        -0.0005
      5 N2         -0.6244   -2.5407    1.1564 N.3       1 <0>        -0.3851
      6 C4          0.7499   -2.0201    1.1745 C.3       1 <0>         0.0384
      7 C5          0.7125   -0.4904    1.1921 C.3       1 <0>        -0.0029
      8 N3         -0.6316   -3.9941    1.1959 N.3       1 <0>        -0.5138
      9 C6         -1.2706   -4.4842    2.4245 C.3       1 <0>         0.1088
     10 C7         -1.2593   -5.9911    2.4299 C.ar      1 <0>        -0.0757
     11 C8         -2.3130   -6.6871    1.8714 C.ar      1 <0>        -0.0966
     12 C9         -2.3119   -8.0733    1.8714 C.ar      1 <0>        -0.0498
     13 C10        -1.2481   -8.7648    2.4348 C.ar      1 <0>        -0.1336
     14 C11        -0.1754   -8.0579    3.0035 C.ar      1 <0>        -0.0319
     15 C12        -0.1883   -6.6702    2.9907 C.ar      1 <0>        -0.0447
     16 C13         0.8112   -9.0369    3.5258 C.ar      1 <0>         0.3020
     17 C14         0.3299  -10.3369    3.2704 C.ar      1 <0>        -0.3486
     18 C15         1.1042  -11.4328    3.6802 C.ar      1 <0>         0.3470
     19 N4          2.2642  -11.1992    4.2949 N.ar      1 <0>        -0.5675
     20 C16         2.6795   -9.9620    4.5153 C.ar      1 <0>         0.6040
     21 N5          1.9753   -8.8978    4.1422 N.ar      1 <0>        -0.5627
     22 N6          3.8860   -9.7698    5.1552 N.pl3     1 <0>        -0.8026
     23 C17         0.6430  -12.8189    3.4359 C.ar      1 <0>        -0.0855
     24 C18        -0.7167  -13.1248    3.4936 C.ar      1 <0>        -0.0600
     25 C19        -1.1402  -14.4180    3.2651 C.ar      1 <0>        -0.1268
     26 C20        -0.2194  -15.4101    2.9792 C.ar      1 <0>        -0.0900
     27 C21         1.1306  -15.1130    2.9211 C.ar      1 <0>        -0.1328
     28 C22         1.5659  -13.8224    3.1416 C.ar      1 <0>        -0.0650
     29 C23        -0.9668  -10.2151    2.5834 C.2       1 <0>         0.4602
     30 O1         -1.6735  -11.1295    2.2086 O.2       1 <0>        -0.4061
     31 H1          1.0047    1.8421    0.0024 H         1 <0>         0.1256
     32 H2         -0.5450    1.8259   -0.8730 H         1 <0>         0.1246
     33 H3         -0.5280    1.8163    0.9069 H         1 <0>         0.1236
     34 H4         -1.8832   -0.1716    0.9134 H         1 <0>         0.1387
     35 H5         -1.9060   -0.1400   -0.8661 H         1 <0>         0.1385
     36 H6         -2.3783   -2.4196    0.0047 H         1 <0>         0.1220
     37 H7         -0.8610   -2.3831   -0.9260 H         1 <0>         0.0691
     38 H8          1.2641   -2.3816    2.0650 H         1 <0>         0.1281
     39 H9          1.2796   -2.3607    0.2848 H         1 <0>         0.0666
     40 H10         1.7310   -0.1020    1.1912 H         1 <0>         0.1401
     41 H11         0.1947   -0.1499    2.0888 H         1 <0>         0.1380
     42 H12        -1.0813   -4.3759    0.3774 H         1 <0>         0.3467
     43 H13        -0.7233   -4.1137    3.2914 H         1 <0>         0.0963
     44 H14        -2.3000   -4.1284    2.4655 H         1 <0>         0.0589
     45 H15        -3.1409   -6.1496    1.4332 H         1 <0>         0.1364
     46 H16        -3.1378   -8.6146    1.4340 H         1 <0>         0.1440
     47 H17         0.6344   -6.1189    3.4214 H         1 <0>         0.1404
     48 H18         4.4138  -10.5340    5.4349 H         1 <0>         0.4226
     49 H19         4.2068   -8.8703    5.3254 H         1 <0>         0.4195
     50 H20        -1.4364  -12.3512    3.7170 H         1 <0>         0.1336
     51 H21        -2.1926  -14.6562    3.3098 H         1 <0>         0.1298
     52 H22        -0.5557  -16.4209    2.8011 H         1 <0>         0.1282
     53 H23         1.8447  -15.8919    2.6982 H         1 <0>         0.1297
     54 H24         2.6195  -13.5906    3.0911 H         1 <0>         0.1295
     55 H25         0.4748   -0.3293   -0.8280 H         1 <0>         0.4240
@<TRIPOS>BOND
     1    1    2 1
     2    1   31 1
     3    1   32 1
     4    1   33 1
     5    2    7 1
     6    2    3 1
     7    2   55 1
     8    3    4 1
     9    3   34 1
    10    3   35 1
    11    4    5 1
    12    4   36 1
    13    4   37 1
    14    5    6 1
    15    5    8 1
    16    6    7 1
    17    6   38 1
    18    6   39 1
    19    7   40 1
    20    7   41 1
    21    8    9 1
    22    8   42 1
    23    9   10 1
    24    9   43 1
    25    9   44 1
    26   10   15 ar
    27   10   11 ar
    28   11   12 ar
    29   11   45 1
    30   12   13 ar
    31   12   46 1
    32   13   29 1
    33   13   14 ar
    34   14   15 ar
    35   14   16 1
    36   15   47 1
    37   16   21 ar
    38   16   17 ar
    39   17   18 ar
    40   17   29 1
    41   18   19 ar
    42   18   23 1
    43   19   20 ar
    44   20   21 ar
    45   20   22 1
    46   22   48 1
    47   22   49 1
    48   23   28 ar
    49   23   24 ar
    50   24   25 ar
    51   24   50 1
    52   25   26 ar
    53   25   51 1
    54   26   27 ar
    55   26   52 1
    56   27   28 ar
    57   27   53 1
    58   28   54 1
    59   29   30 2
@<TRIPOS>MOLECULE
CHEMBL611528
   57    60     0     0     0
SMALL
USER_CHARGES

@<TRIPOS>ATOM
      1 C1         -0.0164    1.3590    0.0095 C.2       1 <0>         0.2877
      2 N1          1.2006    1.8206    0.0004 N.2       1 <0>        -0.4656
      3 C2          2.0754    0.7871   -0.0135 C.ar      1 <0>        -0.0957
      4 C3          3.4784    0.6816   -0.0279 C.ar      1 <0>         0.5131
      5 N2          4.0240   -0.5276   -0.0400 N.ar      1 <0>        -0.5715
      6 C4          3.2683   -1.6225   -0.0386 C.ar      1 <0>         0.4914
      7 N3          1.9438   -1.5670   -0.0257 N.ar      1 <0>        -0.5393
      8 C5          1.3171   -0.3971   -0.0127 C.ar      1 <0>         0.3114
      9 N4          0.0021   -0.0041    0.0020 N.pl3     1 <0>        -0.4614
     10 C6         -1.1668   -0.8871    0.0089 C.3       1 <0>         0.3133
     11 C7         -1.5287   -1.2882   -1.4374 C.3       1 <0>         0.0764
     12 H1         -1.1656   -2.2906   -1.6643 H         1 <0>         0.0989
     13 C8         -3.0811   -1.2558   -1.4098 C.3       1 <0>         0.0479
     14 H2         -3.4868   -2.1907   -1.0232 H         1 <0>         0.0938
     15 C9         -3.3334   -0.0875   -0.4237 C.3       1 <0>         0.0510
     16 H3         -3.2630    0.8680   -0.9433 H         1 <0>         0.0991
     17 O1         -2.2939   -0.1972    0.5615 O.3       1 <0>        -0.3455
     18 C10        -4.7077   -0.2340    0.2327 C.3       1 <0>         0.0780
     19 O2         -4.9705    0.9098    1.0480 O.3       1 <0>        -0.5628
     20 O3         -3.6132   -0.9631   -2.7033 O.3       1 <0>        -0.5423
     21 O4         -1.0127   -0.3390   -2.3726 O.3       1 <0>        -0.5348
     22 C11         3.9070   -2.9041   -0.0520 C.1       1 <0>        -0.0968
     23 C12         4.4307   -3.9548   -0.0630 C.1       1 <0>        -0.1175
     24 C13         5.0886   -5.2750   -0.0768 C.3       1 <0>         0.2659
     25 C14         6.1107   -5.3115   -1.2112 C.3       1 <0>        -0.1403
     26 C15         5.9331   -6.5259   -2.1314 C.3       1 <0>        -0.1283
     27 C16         5.3048   -6.0307   -3.4526 C.3       1 <0>        -0.1206
     28 C17         3.8438   -5.6705   -3.2180 C.3       1 <0>        -0.1220
     29 C18         3.1528   -6.7376   -2.3812 C.3       1 <0>        -0.1219
     30 C19         2.8786   -6.2154   -0.9748 C.3       1 <0>        -0.1137
     31 C20         4.0868   -6.4064   -0.0732 C.3       1 <0>        -0.1067
     32 O5          5.8411   -5.3607    1.1599 O.3       1 <0>        -0.5615
     33 N5          4.2724    1.8152   -0.0299 N.pl3     1 <0>        -0.8147
     34 H4         -0.9093    1.9664    0.0254 H         1 <0>         0.2186
     35 H5         -0.9533   -1.7785    0.5988 H         1 <0>         0.1367
     36 H6         -5.4727   -0.3132   -0.5397 H         1 <0>         0.0642
     37 H7         -4.7212   -1.1317    0.8509 H         1 <0>         0.0593
     38 H8         -5.8270    0.8849    1.4962 H         1 <0>         0.3861
     39 H9         -4.5793   -0.9327   -2.7335 H         1 <0>         0.3908
     40 H10        -1.2137   -0.5468   -3.2954 H         1 <0>         0.3945
     41 H11         6.0175   -4.4001   -1.8072 H         1 <0>         0.0752
     42 H12         7.1172   -5.3430   -0.7828 H         1 <0>         0.0793
     43 H13         6.9253   -6.9300   -2.3664 H         1 <0>         0.0604
     44 H14         5.3355   -7.2974   -1.6947 H         1 <0>         0.0885
     45 H15         5.8575   -5.1555   -3.7918 H         1 <0>         0.0615
     46 H16         5.3790   -6.8244   -4.1935 H         1 <0>         0.0616
     47 H17         3.7779   -4.7033   -2.7179 H         1 <0>         0.0619
     48 H18         3.3348   -5.5856   -4.1852 H         1 <0>         0.0565
     49 H19         2.1952   -6.9940   -2.8532 H         1 <0>         0.0579
     50 H20         3.7584   -7.6408   -2.3362 H         1 <0>         0.0711
     51 H21         2.5371   -5.1894   -1.0189 H         1 <0>         0.0729
     52 H22         2.0415   -6.8039   -0.5543 H         1 <0>         0.0637
     53 H23         4.5646   -7.3665   -0.2714 H         1 <0>         0.0898
     54 H24         3.7013   -6.5061    0.9675 H         1 <0>         0.0720
     55 H25         6.5140   -4.6734    1.2593 H         1 <0>         0.3803
     56 H26         3.8626    2.6943   -0.0213 H         1 <0>         0.4211
     57 H27         5.2386    1.7306   -0.0398 H         1 <0>         0.4115
@<TRIPOS>BOND
     1    1    9 1
     2    1    2 2
     3    1   34 1
     4    2    3 1
     5    3    8 ar
     6    3    4 ar
     7    4    5 ar
     8    4   33 1
     9    5    6 ar
    10    6    7 ar
    11    6   22 1
    12    7    8 ar
    13    8    9 1
    14    9   10 1
    15   10   17 1
    16   10   11 1
    17   10   35 1
    18   11   12 1
    19   11   13 1
    20   11   21 1
    21   13   14 1
    22   13   15 1
    23   13   20 1
    24   15   16 1
    25   15   17 1
    26   15   18 1
    27   18   19 1
    28   18   36 1
    29   18   37 1
    30   19   38 1
    31   20   39 1
    32   21   40 1
    33   22   23 3
    34   23   24 1
    35   24   31 1
    36   24   25 1
    37   24   32 1
    38   25   26 1
    39   25   41 1
    40   25   42 1
    41   26   27 1
    42   26   43 1
    43   26   44 1
    44   27   28 1
    45   27   45 1
    46   27   46 1
    47   28   29 1
    48   28   47 1
    49   28   48 1
    50   29   30 1
    51   29   49 1
    52   29   50 1
    53   30   31 1
    54   30   51 1
    55   30   52 1
    56   31   53 1
    57   31   54 1
    58   32   55 1
    59   33   56 1
    60   33   57 1
@<TRIPOS>MOLECULE
CHEMBL180109
   31    34     0     0     0
SMALL
USER_CHARGES

@<TRIPOS>ATOM
      1 C1         -0.0162    1.3434    0.0094 C.2       1 <0>        -0.2191
      2 C2          1.3252    1.7744   -0.0011 C.2       1 <0>        -0.1249
      3 C3          2.0961    0.6548   -0.0144 C.2       1 <0>         0.0341
      4 O1          1.2796   -0.4165   -0.0124 O.3       1 <0>        -0.1605
      5 C4          0.0021   -0.0041    0.0020 C.2       1 <0>        -0.0059
      6 C5          3.5736    0.6193   -0.0287 C.2       1 <0>         0.3553
      7 N1          4.3724    1.6910   -0.0248 N.2       1 <0>        -0.5193
      8 C6          5.6373    1.3016   -0.0409 C.2       1 <0>         0.3518
      9 C7          6.8653    1.9887   -0.0455 C.2       1 <0>        -0.2045
     10 C8          8.0335    1.2492   -0.0649 C.2       1 <0>         0.2431
     11 N2          7.9817   -0.0919   -0.0787 N.2       1 <0>        -0.5482
     12 C9          6.8384   -0.7378   -0.0744 C.2       1 <0>         0.6561
     13 N3          5.6515   -0.0698   -0.0557 N.pl3     1 <0>        -0.3607
     14 N4          4.3112   -0.4768   -0.0417 N.2       1 <0>        -0.3176
     15 N5          6.8393   -2.1132   -0.0891 N.pl3     1 <0>        -0.8053
     16 C10         9.3456    1.9389   -0.0708 C.ar      1 <0>        -0.0098
     17 C11         9.4235    3.3350   -0.0512 C.ar      1 <0>        -0.1443
     18 C12        10.6655    3.9361   -0.0571 C.ar      1 <0>         0.1005
     19 N6         11.7681    3.2123   -0.0808 N.ar      1 <0>        -0.4740
     20 C13        11.7390    1.8936   -0.0998 C.ar      1 <0>         0.0970
     21 C14        10.5396    1.2113   -0.0902 C.ar      1 <0>        -0.1267
     22 H1         -0.8931    1.9736    0.0252 H         1 <0>         0.1603
     23 H2          1.6735    2.7967    0.0011 H         1 <0>         0.1635
     24 H3         -0.8667   -0.6456    0.0072 H         1 <0>         0.2140
     25 H4          6.8946    3.0682   -0.0346 H         1 <0>         0.1695
     26 H5          7.6797   -2.5975   -0.1025 H         1 <0>         0.4305
     27 H6          5.9997   -2.5988   -0.0861 H         1 <0>         0.4254
     28 H7          8.5249    3.9338   -0.0321 H         1 <0>         0.1450
     29 H8         10.7359    5.0137   -0.0424 H         1 <0>         0.1639
     30 H9         12.6664    1.3406   -0.1193 H         1 <0>         0.1623
     31 H10        10.5233    0.1315   -0.1013 H         1 <0>         0.1483
@<TRIPOS>BOND
     1    1    5 2
     2    1    2 1
     3    1   22 1
     4    2    3 2
     5    2   23 1
     6    3    4 1
     7    3    6 1
     8    4    5 1
     9    5   24 1
    10    6   14 2
    11    6    7 1
    12    7    8 2
    13    8   13 1
    14    8    9 1
    15    9   10 2
    16    9   25 1
    17   10   11 1
    18   10   16 1
    19   11   12 2
    20   12   13 1
    21   12   15 1
    22   13   14 1
    23   15   26 1
    24   15   27 1
    25   16   21 ar
    26   16   17 ar
    27   17   18 ar
    28   17   28 1
    29   18   19 ar
    30   18   29 1
    31   19   20 ar
    32   20   21 ar
    33   20   30 1
    34   21   31 1
@<TRIPOS>MOLECULE
CHEMBL592541
   77    80     0     0     0
SMALL
USER_CHARGES

@<TRIPOS>ATOM
      1 C1         -0.0187    1.5258    0.0104 C.3       1 <0>        -0.1365
      2 C2          0.0021   -0.0041    0.0020 C.3       1 <0>        -0.1362
      3 C3          0.7182   -0.4975   -1.2568 C.3       1 <0>         0.1530
      4 C4          0.8493   -2.0210   -1.2049 C.3       1 <0>        -0.1356
      5 C5          1.6735   -2.5029   -2.4004 C.3       1 <0>        -0.1528
      6 N1         -0.0549   -0.1139   -2.4405 N.pl3     1 <0>        -0.6829
      7 C6          0.1113    1.1413   -2.9985 C.ar      1 <0>         0.5460
      8 C7         -0.6271    1.5272   -4.1310 C.ar      1 <0>        -0.1493
      9 C8         -0.4180    2.8130   -4.6557 C.ar      1 <0>         0.3513
     10 N2          0.4642    3.6164   -4.0693 N.ar      1 <0>        -0.6073
     11 C9          1.1384    3.2130   -3.0050 C.ar      1 <0>         0.6248
     12 N3          0.9679    2.0094   -2.4726 N.ar      1 <0>        -0.6186
     13 N4          2.0489    4.0792   -2.4222 N.pl3     1 <0>        -0.7033
     14 C10         2.8090    3.6581   -1.2427 C.3       1 <0>         0.1451
     15 C11         3.7364    4.7924   -0.8019 C.3       1 <0>        -0.0784
     16 C12         4.5182    4.3592    0.4114 C.2       1 <0>         0.0394
     17 C13         4.1005    4.4322    1.6895 C.2       1 <0>         0.0338
     18 N5          5.1127    3.9358    2.4660 N.pl3     1 <0>        -0.4047
     19 C14         6.1144    3.5766    1.6346 C.cat     1 <0>         0.2919
     20 N6          5.7499    3.8280    0.4070 N.pl3     1 <0>        -0.4745
     21 C15         5.1098    3.8166    3.9261 C.3       1 <0>         0.0878
     22 C16         4.5439    2.4523    4.3253 C.3       1 <0>        -0.1798
     23 N7         -1.2538    2.9208   -5.7382 N.pl3     1 <0>        -0.4672
     24 C17        -1.9323    1.7423   -5.8499 C.2       1 <0>         0.2323
     25 N8         -1.5631    0.9264   -4.9063 N.2       1 <0>        -0.4465
     26 C18        -1.3925    4.0872   -6.6136 C.3       1 <0>         0.1510
     27 H1         -0.7340    4.8875   -6.2760 H         1 <0>         0.1291
     28 C19        -2.8564    4.5738   -6.6179 C.3       1 <0>        -0.1356
     29 C20        -3.1028    5.0243   -8.0792 C.3       1 <0>         0.1564
     30 H2         -2.6966    6.0213   -8.2497 H         1 <0>         0.1150
     31 C21        -2.3232    3.9663   -8.8990 C.3       1 <0>         0.0579
     32 H3         -2.9106    3.0538   -9.0006 H         1 <0>         0.0745
     33 C22        -1.0522    3.7013   -8.0638 C.3       1 <0>         0.0629
     34 H4         -0.7840    2.6461   -8.1163 H         1 <0>         0.0715
     35 O1          0.0268    4.5057   -8.5442 O.3       1 <0>        -0.5425
     36 O2         -1.9796    4.4844  -10.1857 O.3       1 <0>        -0.5314
     37 N9         -4.5316    4.9860   -8.4004 N.am      1 <0>        -0.7305
     38 C23        -5.0244    5.7749   -9.3757 C.2       1 <0>         0.5114
     39 O3         -4.2850    6.5165   -9.9875 O.2       1 <0>        -0.5158
     40 C24        -6.4942    5.7356   -9.7061 C.3       1 <0>        -0.1437
     41 C25        -6.7884    6.7190  -10.8407 C.3       1 <0>        -0.1394
     42 H5          1.0039    1.9031    0.0027 H         1 <0>         0.0574
     43 H6         -0.5459    1.8868   -0.8726 H         1 <0>         0.0531
     44 H7         -0.5289    1.8773    0.9072 H         1 <0>         0.0412
     45 H8          0.5293   -0.3651    0.8851 H         1 <0>         0.0690
     46 H9         -1.0205   -0.3814    0.0098 H         1 <0>         0.0642
     47 H10         1.7103   -0.0491   -1.3098 H         1 <0>         0.0897
     48 H11         1.3468   -2.3116   -0.2797 H         1 <0>         0.0795
     49 H12        -0.1422   -2.4724   -1.2416 H         1 <0>         0.0710
     50 H13         2.6650   -2.0515   -2.3638 H         1 <0>         0.0522
     51 H14         1.7669   -3.5883   -2.3635 H         1 <0>         0.0593
     52 H15         1.1760   -2.2123   -3.3257 H         1 <0>         0.0563
     53 H16        -0.6834   -0.7398   -2.8331 H         1 <0>         0.4194
     54 H17         2.1833    4.9645   -2.7951 H         1 <0>         0.4170
     55 H18         2.1198    3.4169   -0.4334 H         1 <0>         0.0776
     56 H19         3.4031    2.7778   -1.4885 H         1 <0>         0.0683
     57 H20         4.4256    5.0335   -1.6112 H         1 <0>         0.1036
     58 H21         3.1423    5.6726   -0.5562 H         1 <0>         0.1191
     59 H22         3.1498    4.8100    2.0355 H         1 <0>         0.2227
     60 H23         7.0591    3.1483    1.9355 H         1 <0>         0.2608
     61 H24         6.1292    3.9107    4.3003 H         1 <0>         0.1222
     62 H25         4.4914    4.6058    4.3538 H         1 <0>         0.1244
     63 H26         3.5244    2.3583    3.9510 H         1 <0>         0.0744
     64 H27         5.1622    1.6632    3.8975 H         1 <0>         0.0722
     65 H28         4.5417    2.3636    5.4117 H         1 <0>         0.1007
     66 H29        -2.6677    1.5199   -6.6090 H         1 <0>         0.2162
     67 H30        -3.5299    3.7593   -6.3511 H         1 <0>         0.0897
     68 H31        -2.9814    5.4131   -5.9337 H         1 <0>         0.0979
     69 H32         0.2884    4.3100   -9.4543 H         1 <0>         0.3864
     70 H33        -1.4898    3.8632  -10.7418 H         1 <0>         0.3745
     71 H34        -5.1230    4.3929   -7.9111 H         1 <0>         0.4008
     72 H35        -6.7696    4.7281  -10.0180 H         1 <0>         0.0929
     73 H36        -7.0723    6.0140   -8.8250 H         1 <0>         0.0932
     74 H37        -6.5129    7.7264  -10.5289 H         1 <0>         0.0620
     75 H38        -6.2103    6.4405  -11.7219 H         1 <0>         0.0625
     76 H39        -7.8515    6.6905  -11.0797 H         1 <0>         0.0631
     77 H40         6.2858    3.6592   -0.3836 H         1 <0>         0.4631
@<TRIPOS>BOND
     1    1    2 1
     2    1   42 1
     3    1   43 1
     4    1   44 1
     5    2    3 1
     6    2   45 1
     7    2   46 1
     8    3    4 1
     9    3    6 1
    10    3   47 1
    11    4    5 1
    12    4   48 1
    13    4   49 1
    14    5   50 1
    15    5   51 1
    16    5   52 1
    17    6    7 1
    18    6   53 1
    19    7   12 ar
    20    7    8 ar
    21    8   25 1
    22    8    9 ar
    23    9   10 ar
    24    9   23 1
    25   10   11 ar
    26   11   12 ar
    27   11   13 1
    28   13   14 1
    29   13   54 1
    30   14   15 1
    31   14   55 1
    32   14   56 1
    33   15   16 1
    34   15   57 1
    35   15   58 1
    36   16   20 1
    37   16   17 2
    38   17   18 1
    39   17   59 1
    40   18   19 1
    41   18   21 1
    42   19   20 2
    43   19   60 1
    44   20   77 1
    45   21   22 1
    46   21   61 1
    47   21   62 1
    48   22   63 1
    49   22   64 1
    50   22   65 1
    51   23   24 1
    52   23   26 1
    53   24   25 2
    54   24   66 1
    55   26   27 1
    56   26   33 1
    57   26   28 1
    58   28   29 1
    59   28   67 1
    60   28   68 1
    61   29   30 1
    62   29   31 1
    63   29   37 1
    64   31   32 1
    65   31   33 1
    66   31   36 1
    67   33   34 1
    68   33   35 1
    69   35   69 1
    70   36   70 1
    71   37   38 am
    72   37   71 1
    73   38   39 2
    74   38   40 1
    75   40   41 1
    76   40   72 1
    77   40   73 1
    78   41   74 1
    79   41   75 1
    80   41   76 1
@<TRIPOS>MOLECULE
CHEMBL486140
   46    48     0     0     0
SMALL
USER_CHARGES

@<TRIPOS>ATOM
      1 C1          1.4947   -3.3957    1.7929 C.3       1 <0>        -0.1398
      2 C2          0.5994   -2.2230    1.3879 C.3       1 <0>        -0.1409
      3 C3         -0.7999   -2.7228    1.1364 C.2       1 <0>         0.5019
      4 O1         -1.0558   -3.9008    1.2681 O.2       1 <0>        -0.4610
      5 N1         -1.7669   -1.8605    0.7651 N.am      1 <0>        -0.6559
      6 C4         -3.0272   -2.3361    0.4189 C.ar      1 <0>         0.4446
      7 C5         -4.0723   -1.4492    0.1687 C.ar      1 <0>        -0.2737
      8 C6         -5.3168   -1.9734   -0.1752 C.ar      1 <0>         0.2736
      9 N2         -5.4627   -3.2959   -0.2523 N.ar      1 <0>        -0.5261
     10 C7         -4.4463   -4.1044   -0.0074 C.ar      1 <0>         0.6042
     11 N3         -3.2495   -3.6423    0.3168 N.ar      1 <0>        -0.5323
     12 N4         -4.6392   -5.4830   -0.0985 N.pl3     1 <0>        -0.3202
     13 C8         -3.6761   -6.4356    0.0133 C.2       1 <0>         0.1203
     14 C9         -4.2732   -7.6400   -0.1338 C.2       1 <0>        -0.2627
     15 C10        -5.6404   -7.4219   -0.3416 C.2       1 <0>         0.0931
     16 N5         -5.8610   -6.1331   -0.3155 N.2       1 <0>        -0.2612
     17 C11        -6.6817   -8.4905   -0.5534 C.3       1 <0>        -0.0743
     18 C12        -2.2088   -6.1935    0.2570 C.3       1 <0>        -0.0782
     19 C13        -6.4626   -1.0725   -0.4511 C.ar      1 <0>        -0.0731
     20 C14        -7.7359   -1.5966   -0.6881 C.ar      1 <0>        -0.0568
     21 C15        -8.7750   -0.7106   -0.9415 C.ar      1 <0>         0.0754
     22 C16        -8.5146    0.6530   -0.9503 C.ar      1 <0>         0.0353
     23 N6         -7.3000    1.1130   -0.7229 N.ar      1 <0>        -0.4473
     24 C17        -6.2867    0.3096   -0.4722 C.ar      1 <0>         0.0951
     25 O2        -10.0310   -1.1728   -1.1782 O.3       1 <0>        -0.3066
     26 C18       -11.0445   -0.1974   -1.4304 C.3       1 <0>         0.0217
     27 H1          2.5068   -3.0342    1.9748 H         1 <0>         0.0659
     28 H2          1.1040   -3.8544    2.7012 H         1 <0>         0.0638
     29 H3          1.5113   -4.1340    0.9912 H         1 <0>         0.0643
     30 H4          0.5829   -1.4847    2.1896 H         1 <0>         0.0985
     31 H5          0.9901   -1.7643    0.4796 H         1 <0>         0.0992
     32 H6         -1.5839   -0.9083    0.7393 H         1 <0>         0.4255
     33 H7         -3.9217   -0.3821    0.2399 H         1 <0>         0.1596
     34 H8         -3.7818   -8.6010   -0.0978 H         1 <0>         0.1591
     35 H9         -7.0939   -8.7921    0.4095 H         1 <0>         0.0821
     36 H10        -7.4802   -8.0999   -1.1841 H         1 <0>         0.0768
     37 H11        -6.2240   -9.3526   -1.0388 H         1 <0>         0.0825
     38 H12        -2.0410   -6.0182    1.3196 H         1 <0>         0.0894
     39 H13        -1.6387   -7.0661   -0.0617 H         1 <0>         0.0722
     40 H14        -1.8853   -5.3210   -0.3107 H         1 <0>         0.0900
     41 H15        -7.9075   -2.6628   -0.6750 H         1 <0>         0.1593
     42 H16        -9.3184    1.3471   -1.1467 H         1 <0>         0.1645
     43 H17        -5.3079    0.7264   -0.2860 H         1 <0>         0.1648
     44 H18       -11.1336    0.4649   -0.5693 H         1 <0>         0.0601
     45 H19       -10.7762    0.3859   -2.3112 H         1 <0>         0.0601
     46 H20       -11.9967   -0.6990   -1.6030 H         1 <0>         0.1071
@<TRIPOS>BOND
     1    1    2 1
     2    1   27 1
     3    1   28 1
     4    1   29 1
     5    2    3 1
     6    2   30 1
     7    2   31 1
     8    3    4 2
     9    3    5 am
    10    5    6 1
    11    5   32 1
    12    6   11 ar
    13    6    7 ar
    14    7    8 ar
    15    7   33 1
    16    8    9 ar
    17    8   19 1
    18    9   10 ar
    19   10   11 ar
    20   10   12 1
    21   12   16 1
    22   12   13 1
    23   13   14 2
    24   13   18 1
    25   14   15 1
    26   14   34 1
    27   15   16 2
    28   15   17 1
    29   17   35 1
    30   17   36 1
    31   17   37 1
    32   18   38 1
    33   18   39 1
    34   18   40 1
    35   19   24 ar
    36   19   20 ar
    37   20   21 ar
    38   20   41 1
    39   21   22 ar
    40   21   25 1
    41   22   23 ar
    42   22   42 1
    43   23   24 ar
    44   24   43 1
    45   25   26 1
    46   26   44 1
    47   26   45 1
    48   26   46 1
@<TRIPOS>MOLECULE
CHEMBL1087714
   48    52     0     0     0
SMALL
USER_CHARGES

@<TRIPOS>ATOM
      1 C1         -0.0167    1.3793    0.0096 C.ar      1 <0>        -0.0865
      2 C2          1.1685    2.0929    0.0021 C.ar      1 <0>        -0.1314
      3 C3          2.3774    1.4279   -0.0130 C.ar      1 <0>        -0.0630
      4 C4          2.4029    0.0333   -0.0207 C.ar      1 <0>        -0.0907
      5 C5          1.2046   -0.6805   -0.0131 C.ar      1 <0>        -0.0604
      6 C6          0.0021   -0.0041    0.0020 C.ar      1 <0>        -0.1263
      7 C7          3.6972   -0.6866   -0.0375 C.ar      1 <0>         0.3542
      8 C8          3.8485   -1.9053    0.6416 C.ar      1 <0>        -0.3486
      9 C9          5.0995   -2.5526    0.5963 C.ar      1 <0>         0.2926
     10 N1          6.0850   -1.9878   -0.0854 N.ar      1 <0>        -0.5610
     11 C10         5.9016   -0.8324   -0.7162 C.ar      1 <0>         0.6072
     12 N2          4.7422   -0.1938   -0.7026 N.ar      1 <0>        -0.5627
     13 N3          6.9560   -0.2811   -1.4137 N.pl3     1 <0>        -0.7986
     14 C11         5.0091   -3.8087    1.3828 C.ar      1 <0>        -0.0217
     15 C12         5.9398   -4.8012    1.6568 C.ar      1 <0>        -0.0497
     16 C13         5.5832   -5.8911    2.4363 C.ar      1 <0>        -0.1469
     17 C14         4.3040   -5.9981    2.9448 C.ar      1 <0>        -0.0755
     18 C15         3.3631   -5.0152    2.6796 C.ar      1 <0>        -0.0503
     19 C16         3.7079   -3.9189    1.9009 C.ar      1 <0>        -0.1057
     20 C17         2.9384   -2.7304    1.4536 C.2       1 <0>         0.4548
     21 O1          1.7764   -2.4848    1.7094 O.2       1 <0>        -0.3926
     22 C18         6.5980   -6.9658    2.7299 C.3       1 <0>         0.0448
     23 N4          7.3232   -6.6308    3.9628 N.4       1 <0>        -0.5126
     24 C19         8.3124   -7.6784    4.2489 C.3       1 <0>         0.0940
     25 C20         9.0563   -7.3348    5.5137 C.2       1 <0>        -0.1205
     26 C21         8.7035   -7.7027    6.7585 C.2       1 <0>        -0.1342
     27 C22         9.6754   -7.1676    7.6348 C.2       1 <0>        -0.2214
     28 C23        10.5641   -6.5046    6.8730 C.2       1 <0>         0.0194
     29 O2         10.1872   -6.6142    5.5886 O.3       1 <0>        -0.1684
     30 H1         -0.9604    1.9042    0.0260 H         1 <0>         0.1300
     31 H2          1.1475    3.1726    0.0078 H         1 <0>         0.1315
     32 H3          3.3020    1.9860   -0.0192 H         1 <0>         0.1304
     33 H4          1.2180   -1.7604   -0.0194 H         1 <0>         0.1322
     34 H5         -0.9264   -0.5556    0.0083 H         1 <0>         0.1311
     35 H6          7.8124   -0.7360   -1.4376 H         1 <0>         0.4209
     36 H7          6.8412    0.5615   -1.8803 H         1 <0>         0.4250
     37 H8          6.9422   -4.7247    1.2623 H         1 <0>         0.1484
     38 H9          4.0354   -6.8506    3.5509 H         1 <0>         0.1497
     39 H10         2.3631   -5.1023    3.0782 H         1 <0>         0.1542
     40 H11         6.0891   -7.9214    2.8559 H         1 <0>         0.1481
     41 H12         7.3029   -7.0360    1.9014 H         1 <0>         0.1462
     42 H13         7.7943   -5.7462    3.8461 H         1 <0>         0.4313
     43 H14         7.8035   -8.6341    4.3750 H         1 <0>         0.1593
     44 H15         9.0173   -7.7486    3.4205 H         1 <0>         0.1484
     45 H16         7.8426   -8.2931    7.0355 H         1 <0>         0.1623
     46 H17         9.6996   -7.2709    8.7095 H         1 <0>         0.1641
     47 H18        11.4351   -5.9771    7.2329 H         1 <0>         0.2190
     48 H19         6.6707   -6.5658    4.7296 H         1 <0>         0.4299
@<TRIPOS>BOND
     1    1    6 ar
     2    1    2 ar
     3    1   30 1
     4    2    3 ar
     5    2   31 1
     6    3    4 ar
     7    3   32 1
     8    4    5 ar
     9    4    7 1
    10    5    6 ar
    11    5   33 1
    12    6   34 1
    13    7   12 ar
    14    7    8 ar
    15    8   20 1
    16    8    9 ar
    17    9   10 ar
    18    9   14 1
    19   10   11 ar
    20   11   12 ar
    21   11   13 1
    22   13   35 1
    23   13   36 1
    24   14   19 ar
    25   14   15 ar
    26   15   16 ar
    27   15   37 1
    28   16   17 ar
    29   16   22 1
    30   17   18 ar
    31   17   38 1
    32   18   19 ar
    33   18   39 1
    34   19   20 1
    35   20   21 2
    36   22   23 1
    37   22   40 1
    38   22   41 1
    39   23   24 1
    40   23   42 1
    41   23   48 1
    42   24   25 1
    43   24   43 1
    44   24   44 1
    45   25   29 1
    46   25   26 2
    47   26   27 1
    48   26   45 1
    49   27   28 2
    50   27   46 1
    51   28   29 1
    52   28   47 1
@<TRIPOS>MOLECULE
CHEMBL95101
   42    45     0     0     0
SMALL
USER_CHARGES

@<TRIPOS>ATOM
      1 C1         -0.0184    1.5028    0.0103 C.3       1 <0>        -0.0817
      2 C2          0.0021   -0.0041    0.0020 C.2       1 <0>        -0.1301
      3 C3          0.0080   -0.7984   -1.0816 C.2       1 <0>         0.0709
      4 N1          0.0276   -2.1148   -0.6934 N.pl3     1 <0>        -0.4137
      5 C4          0.0349   -2.1987    0.6747 C.ar      1 <0>         0.3572
      6 C5          0.0256   -0.8807    1.1711 C.ar      1 <0>        -0.2593
      7 C6          0.0363   -0.6816    2.5612 C.ar      1 <0>         0.4961
      8 N2          0.0582   -1.7478    3.3528 N.ar      1 <0>        -0.5900
      9 C7          0.0699   -2.9760    2.8452 C.ar      1 <0>         0.4241
     10 N3          0.0520   -3.2069    1.5418 N.ar      1 <0>        -0.5537
     11 C8          0.0950   -4.1314    3.7739 C.ar      1 <0>        -0.0425
     12 C9          0.1135   -5.4320    3.2724 C.ar      1 <0>        -0.0698
     13 C10         0.1367   -6.5035    4.1416 C.ar      1 <0>        -0.1324
     14 C11         0.1411   -6.2890    5.5082 C.ar      1 <0>        -0.1005
     15 C12         0.1224   -5.0007    6.0116 C.ar      1 <0>        -0.1326
     16 C13         0.1058   -3.9212    5.1520 C.ar      1 <0>        -0.0691
     17 N4          0.0246    0.5952    3.0935 N.pl3     1 <0>        -0.8295
     18 C14         0.0386   -3.2106   -1.5664 C.ar      1 <0>         0.1213
     19 C15        -1.0486   -3.4498   -2.3963 C.ar      1 <0>        -0.1107
     20 C16        -1.0346   -4.5306   -3.2562 C.ar      1 <0>        -0.1075
     21 C17         0.0607   -5.3740   -3.2910 C.ar      1 <0>        -0.1093
     22 C18         1.1449   -5.1384   -2.4657 C.ar      1 <0>        -0.1058
     23 C19         1.1391   -4.0563   -1.6075 C.ar      1 <0>        -0.0980
     24 C20        -0.0054   -0.3162   -2.5093 C.3       1 <0>        -0.0916
     25 H1          1.0042    1.8801    0.0026 H         1 <0>         0.0711
     26 H2         -0.5455    1.8639   -0.8728 H         1 <0>         0.0725
     27 H3         -0.5286    1.8543    0.9071 H         1 <0>         0.0612
     28 H4          0.1093   -5.6006    2.2056 H         1 <0>         0.1345
     29 H5          0.1510   -7.5115    3.7542 H         1 <0>         0.1262
     30 H6          0.1589   -7.1307    6.1848 H         1 <0>         0.1242
     31 H7          0.1256   -4.8392    7.0795 H         1 <0>         0.1269
     32 H8          0.0964   -2.9158    5.5461 H         1 <0>         0.1363
     33 H9          0.0089    1.3660    2.5048 H         1 <0>         0.4110
     34 H10         0.0321    0.7197    4.0555 H         1 <0>         0.4085
     35 H11        -1.9044   -2.7916   -2.3693 H         1 <0>         0.1273
     36 H12        -1.8800   -4.7174   -3.9017 H         1 <0>         0.1322
     37 H13         0.0692   -6.2187   -3.9640 H         1 <0>         0.1302
     38 H14         1.9989   -5.7990   -2.4952 H         1 <0>         0.1321
     39 H15         1.9879   -3.8705   -0.9661 H         1 <0>         0.1255
     40 H16         1.0190   -0.1861   -2.8585 H         1 <0>         0.0793
     41 H17        -0.5124   -1.0500   -3.1359 H         1 <0>         0.0714
     42 H18        -0.5323    0.6363   -2.5662 H         1 <0>         0.0880
@<TRIPOS>BOND
     1    1    2 1
     2    1   25 1
     3    1   26 1
     4    1   27 1
     5    2    6 1
     6    2    3 2
     7    3    4 1
     8    3   24 1
     9    4    5 1
    10    4   18 1
    11    5   10 ar
    12    5    6 ar
    13    6    7 ar
    14    7    8 ar
    15    7   17 1
    16    8    9 ar
    17    9   10 ar
    18    9   11 1
    19   11   16 ar
    20   11   12 ar
    21   12   13 ar
    22   12   28 1
    23   13   14 ar
    24   13   29 1
    25   14   15 ar
    26   14   30 1
    27   15   16 ar
    28   15   31 1
    29   16   32 1
    30   17   33 1
    31   17   34 1
    32   18   23 ar
    33   18   19 ar
    34   19   20 ar
    35   19   35 1
    36   20   21 ar
    37   20   36 1
    38   21   22 ar
    39   21   37 1
    40   22   23 ar
    41   22   38 1
    42   23   39 1
    43   24   40 1
    44   24   41 1
    45   24   42 1
@<TRIPOS>MOLECULE
CHEMBL112773
   44    47     0     0     0
SMALL
USER_CHARGES

@<TRIPOS>ATOM
      1 C1          4.8358   -0.1145    3.1373 C.3       1 <0>         0.0320
      2 O1          3.9525    0.0401    2.0247 O.3       1 <0>        -0.3850
      3 C2          2.6961   -0.6218    2.1838 C.3       1 <0>         0.0433
      4 C3          1.8362   -0.3897    0.9397 C.3       1 <0>         0.1412
      5 H1          0.8406   -0.8053    1.0946 H         1 <0>         0.0933
      6 C4          1.7341    1.1221    0.6469 C.3       1 <0>        -0.1268
      7 C5          1.7979    1.1810   -0.9023 C.3       1 <0>        -0.1319
      8 C6          2.7841    0.0286   -1.2170 C.3       1 <0>         0.0998
      9 N1          2.4660   -1.0223   -0.2285 N.am      1 <0>        -0.5986
     10 C7          2.7124   -2.3397   -0.3708 C.2       1 <0>         0.5844
     11 O2          2.4903   -3.1024    0.5492 O.2       1 <0>        -0.5187
     12 C8          3.2530   -2.8572   -1.6461 C.2       1 <0>         0.0041
     13 C9          2.3983   -3.4699   -2.5866 C.2       1 <0>        -0.2334
     14 C10         2.9040   -3.9428   -3.7575 C.2       1 <0>         0.4586
     15 N2          4.2341   -3.8326   -4.0377 N.pl3     1 <0>        -0.3167
     16 C11         5.0929   -3.2445   -3.1498 C.2       1 <0>         0.3357
     17 C12         4.6049   -2.7404   -1.9335 C.2       1 <0>        -0.1369
     18 N3          6.3091   -3.2780   -3.6837 N.2       1 <0>        -0.5206
     19 C13         6.2575   -3.8659   -4.8796 C.2       1 <0>         0.3440
     20 N4          5.0106   -4.2219   -5.1394 N.2       1 <0>        -0.3242
     21 C14         7.4128   -4.0853   -5.7745 C.2       1 <0>         0.0685
     22 C15         8.6996   -3.7299   -5.5174 C.2       1 <0>        -0.1280
     23 C16         9.4614   -4.1270   -6.6340 C.2       1 <0>        -0.1559
     24 C17         8.6100   -4.6998   -7.5095 C.2       1 <0>        -0.0097
     25 O3          7.3745   -4.6775   -6.9843 O.3       1 <0>        -0.1443
     26 Br1         9.0795   -5.4206   -9.1935 Br        1 <0>         0.0659
     27 N5          2.0586   -4.5434   -4.6753 N.pl3     1 <0>        -0.8433
     28 H2          5.0469   -1.1730    3.2893 H         1 <0>         0.0410
     29 H3          5.7667    0.4168    2.9388 H         1 <0>         0.0863
     30 H4          4.3677    0.2948    4.0325 H         1 <0>         0.0408
     31 H5          2.8628   -1.6908    2.3160 H         1 <0>         0.0686
     32 H6          2.1836   -0.2230    3.0592 H         1 <0>         0.0590
     33 H7          0.7872    1.5220    1.0094 H         1 <0>         0.0833
     34 H8          2.5745    1.6580    1.0881 H         1 <0>         0.0922
     35 H9          0.8190    0.9883   -1.3412 H         1 <0>         0.0767
     36 H10         2.1946    2.1382   -1.2408 H         1 <0>         0.0880
     37 H11         2.6228   -0.3430   -2.2290 H         1 <0>         0.0766
     38 H12         3.8133    0.3664   -1.0956 H         1 <0>         0.0800
     39 H13         1.3430   -3.5638   -2.3768 H         1 <0>         0.1633
     40 H14         5.2748   -2.2706   -1.2286 H         1 <0>         0.1630
     41 H15         9.0668   -3.2379   -4.6289 H         1 <0>         0.1736
     42 H16        10.5256   -3.9973   -6.7643 H         1 <0>         0.1713
     43 H17         1.1116   -4.6249   -4.4815 H         1 <0>         0.4234
     44 H18         2.4133   -4.8825   -5.5120 H         1 <0>         0.4160
@<TRIPOS>BOND
     1    1    2 1
     2    1   28 1
     3    1   29 1
     4    1   30 1
     5    2    3 1
     6    3    4 1
     7    3   31 1
     8    3   32 1
     9    4    5 1
    10    4    9 1
    11    4    6 1
    12    6    7 1
    13    6   33 1
    14    6   34 1
    15    7    8 1
    16    7   35 1
    17    7   36 1
    18    8    9 1
    19    8   37 1
    20    8   38 1
    21    9   10 am
    22   10   11 2
    23   10   12 1
    24   12   17 2
    25   12   13 1
    26   13   14 2
    27   13   39 1
    28   14   15 1
    29   14   27 1
    30   15   20 1
    31   15   16 1
    32   16   17 1
    33   16   18 2
    34   17   40 1
    35   18   19 1
    36   19   20 2
    37   19   21 1
    38   21   25 1
    39   21   22 2
    40   22   23 1
    41   22   41 1
    42   23   24 2
    43   23   42 1
    44   24   25 1
    45   24   26 1
    46   27   43 1
    47   27   44 1
@<TRIPOS>MOLECULE
CHEMBL485765
   51    54     0     0     0
SMALL
USER_CHARGES

@<TRIPOS>ATOM
      1 C1         -0.2209    1.6514   -0.8047 C.3       1 <0>        -0.0737
      2 C2         -0.0893    0.1681   -0.5736 C.2       1 <0>         0.0914
      3 C3         -0.2434   -0.8290   -1.5443 C.2       1 <0>        -0.2646
      4 C4         -0.0487   -2.0265   -0.9470 C.2       1 <0>         0.1210
      5 N1          0.2209   -1.7927    0.3646 N.pl3     1 <0>        -0.3189
      6 N2          0.1938   -0.4066    0.5665 N.2       1 <0>        -0.2612
      7 C5          0.4826   -2.7598    1.3351 C.ar      1 <0>         0.5974
      8 N3          0.5922   -2.3886    2.5990 N.ar      1 <0>        -0.5194
      9 C6          0.8412   -3.2836    3.5540 C.ar      1 <0>         0.2711
     10 C7          0.9859   -4.6243    3.2034 C.ar      1 <0>        -0.2428
     11 C8          0.8630   -4.9737    1.8598 C.ar      1 <0>         0.4335
     12 N4          0.6089   -4.0240    0.9657 N.ar      1 <0>        -0.5283
     13 N5          0.9993   -6.2990    1.4609 N.am      1 <0>        -0.6545
     14 C9          0.9841   -6.6133    0.1503 C.2       1 <0>         0.5009
     15 O1          0.7589   -5.7551   -0.6764 O.2       1 <0>        -0.4675
     16 C10         1.2469   -8.0311   -0.2877 C.3       1 <0>        -0.1722
     17 C11         0.9632   -2.8586    4.9706 C.ar      1 <0>         0.1996
     18 C12         0.8105   -1.5163    5.3026 C.ar      1 <0>        -0.1730
     19 C13         0.9259   -1.1294    6.6293 C.ar      1 <0>        -0.0380
     20 C14         1.1905   -2.0985    7.5812 C.ar      1 <0>        -0.2149
     21 C15         1.3322   -3.4250    7.1818 C.ar      1 <0>         0.4246
     22 N6          1.2115   -3.7637    5.9093 N.ar      1 <0>        -0.5248
     23 N7          1.5984   -4.4042    8.1316 N.pl3     1 <0>        -0.6181
     24 C16         1.8806   -5.8189    7.8479 C.3       1 <0>         0.1207
     25 C17         2.0874   -6.5258    9.2041 C.3       1 <0>        -0.1347
     26 C18         1.3522   -5.5898   10.1995 C.3       1 <0>        -0.1336
     27 C19         1.6509   -4.1949    9.5900 C.3       1 <0>         0.1157
     28 C20        -0.1187   -3.3759   -1.6143 C.3       1 <0>        -0.0818
     29 H1          0.7495    2.0636   -1.0813 H         1 <0>         0.0815
     30 H2         -0.9349    1.8320   -1.6083 H         1 <0>         0.0820
     31 H3         -0.5726    2.1316    0.1085 H         1 <0>         0.0764
     32 H4         -0.4767   -0.6698   -2.5867 H         1 <0>         0.1584
     33 H5          1.1885   -5.3740    3.9540 H         1 <0>         0.1639
     34 H6          1.1053   -6.9972    2.1258 H         1 <0>         0.4254
     35 H7          0.4982   -8.6913    0.1501 H         1 <0>         0.0931
     36 H8          1.1934   -8.0913   -1.3747 H         1 <0>         0.1005
     37 H9          2.2392   -8.3360    0.0447 H         1 <0>         0.0933
     38 H10         0.6048   -0.7840    4.5360 H         1 <0>         0.1486
     39 H11         0.8121   -0.0937    6.9136 H         1 <0>         0.1414
     40 H12         1.2864   -1.8288    8.6226 H         1 <0>         0.1343
     41 H13         1.0378   -6.2666    7.3212 H         1 <0>         0.0645
     42 H14         2.7845   -5.9028    7.2445 H         1 <0>         0.0627
     43 H15         1.6310   -7.5156    9.1965 H         1 <0>         0.0829
     44 H16         3.1479   -6.5908    9.4473 H         1 <0>         0.0766
     45 H17         0.2815   -5.7942   10.2099 H         1 <0>         0.0774
     46 H18         1.7744   -5.6754   11.2007 H         1 <0>         0.0863
     47 H19         2.6416   -3.8522    9.8886 H         1 <0>         0.0675
     48 H20         0.8913   -3.4763    9.8977 H         1 <0>         0.0743
     49 H21         0.8848   -3.6941   -1.8968 H         1 <0>         0.0849
     50 H22        -0.5488   -4.1010   -0.9235 H         1 <0>         0.0992
     51 H23        -0.7428   -3.3085   -2.5055 H         1 <0>         0.0713
@<TRIPOS>BOND
     1    1    2 1
     2    1   29 1
     3    1   30 1
     4    1   31 1
     5    2    6 2
     6    2    3 1
     7    3    4 2
     8    3   32 1
     9    4    5 1
    10    4   28 1
    11    5    6 1
    12    5    7 1
    13    7   12 ar
    14    7    8 ar
    15    8    9 ar
    16    9   10 ar
    17    9   17 1
    18   10   11 ar
    19   10   33 1
    20   11   12 ar
    21   11   13 1
    22   13   14 am
    23   13   34 1
    24   14   15 2
    25   14   16 1
    26   16   35 1
    27   16   36 1
    28   16   37 1
    29   17   22 ar
    30   17   18 ar
    31   18   19 ar
    32   18   38 1
    33   19   20 ar
    34   19   39 1
    35   20   21 ar
    36   20   40 1
    37   21   22 ar
    38   21   23 1
    39   23   27 1
    40   23   24 1
    41   24   25 1
    42   24   41 1
    43   24   42 1
    44   25   26 1
    45   25   43 1
    46   25   44 1
    47   26   27 1
    48   26   45 1
    49   26   46 1
    50   27   47 1
    51   27   48 1
    52   28   49 1
    53   28   50 1
    54   28   51 1
@<TRIPOS>MOLECULE
CHEMBL22202
   57    61     0     0     0
SMALL
USER_CHARGES

@<TRIPOS>ATOM
      1 C1         -0.0162    1.3433    0.0094 C.2       1 <0>        -0.2200
      2 C2          1.3252    1.7744   -0.0011 C.2       1 <0>        -0.1376
      3 C3          2.0962    0.6548   -0.0144 C.2       1 <0>         0.0429
      4 O1          1.2797   -0.4166   -0.0124 O.3       1 <0>        -0.1521
      5 C4          0.0021   -0.0041    0.0020 C.2       1 <0>        -0.0045
      6 C5          3.5736    0.6193   -0.0287 C.2       1 <0>         0.3500
      7 N1          4.3223   -0.4908   -0.0472 N.2       1 <0>        -0.5167
      8 C6          5.5979   -0.1638   -0.0558 C.2       1 <0>         0.4067
      9 C7          6.8494   -0.9218   -0.0750 C.2       1 <0>        -0.2677
     10 C8          7.1770   -2.2895   -0.0925 C.2       1 <0>         0.1295
     11 N2          8.4769   -2.4024   -0.1057 N.2       1 <0>        -0.2628
     12 N3          9.0564   -1.1275   -0.0976 N.pl3     1 <0>        -0.3530
     13 C9          8.0548   -0.2036   -0.0786 C.2       1 <0>         0.3696
     14 N4          8.0263    1.1363   -0.0638 N.2       1 <0>        -0.5601
     15 C10         6.9037    1.8122   -0.0459 C.2       1 <0>         0.6909
     16 N5          5.6820    1.2042   -0.0426 N.pl3     1 <0>        -0.3761
     17 N6          4.3634    1.6766   -0.0311 N.2       1 <0>        -0.3003
     18 N7          6.9590    3.1863   -0.0316 N.pl3     1 <0>        -0.8028
     19 C11        10.4923   -0.8370   -0.1068 C.3       1 <0>         0.1428
     20 C12        10.9797   -0.7205   -1.5524 C.3       1 <0>        -0.0838
     21 C13        12.4568   -0.4217   -1.5619 C.ar      1 <0>        -0.1494
     22 C14        12.8954    0.8897   -1.5460 C.ar      1 <0>        -0.0596
     23 C15        14.2483    1.1671   -1.5547 C.ar      1 <0>        -0.2003
     24 C16        15.1688    0.1270   -1.5793 C.ar      1 <0>         0.2212
     25 C17        14.7247   -1.1891   -1.5953 C.ar      1 <0>        -0.1998
     26 C18        13.3705   -1.4595   -1.5808 C.ar      1 <0>        -0.0595
     27 N8         16.5378    0.4040   -1.5886 N.pl3     1 <0>        -0.6099
     28 C19        17.5071   -0.6941   -1.6147 C.3       1 <0>         0.1258
     29 C20        17.8304   -1.0547   -3.0660 C.3       1 <0>         0.0542
     30 O2         18.4894    0.0463   -3.6949 O.3       1 <0>        -0.5691
     31 C21        17.0043    1.7927   -1.5723 C.3       1 <0>         0.1258
     32 C22        17.1808    2.2544   -0.1244 C.3       1 <0>         0.0546
     33 O3         18.2241    1.4978    0.4930 O.3       1 <0>        -0.5688
     34 H1         -0.8931    1.9736    0.0252 H         1 <0>         0.1593
     35 H2          1.6736    2.7966    0.0006 H         1 <0>         0.1598
     36 H3         -0.8667   -0.6456    0.0076 H         1 <0>         0.2141
     37 H4          6.4721   -3.1077   -0.0946 H         1 <0>         0.2018
     38 H5          7.8178    3.6373   -0.0348 H         1 <0>         0.4301
     39 H6          6.1392    3.7046   -0.0183 H         1 <0>         0.4261
     40 H7         10.6764    0.1019    0.4155 H         1 <0>         0.0997
     41 H8         11.0292   -1.6426    0.3939 H         1 <0>         0.1018
     42 H9         10.7956   -1.6593   -2.0747 H         1 <0>         0.0786
     43 H10        10.4428    0.0852   -2.0531 H         1 <0>         0.0744
     44 H11        12.1792    1.6978   -1.5272 H         1 <0>         0.1203
     45 H12        14.5902    2.1915   -1.5426 H         1 <0>         0.1202
     46 H13        15.4378   -2.0000   -1.6148 H         1 <0>         0.1207
     47 H14        13.0246   -2.4826   -1.5887 H         1 <0>         0.1213
     48 H15        18.4198   -0.3852   -1.1051 H         1 <0>         0.0924
     49 H16        17.0853   -1.5631   -1.1097 H         1 <0>         0.0867
     50 H17        18.4820   -1.9282   -3.0868 H         1 <0>         0.0521
     51 H18        16.9064   -1.2779   -3.5994 H         1 <0>         0.0471
     52 H19        18.7248   -0.1121   -4.6193 H         1 <0>         0.3779
     53 H20        17.9585    1.8615   -2.0945 H         1 <0>         0.0923
     54 H21        16.2713    2.4280   -2.0695 H         1 <0>         0.0863
     55 H22        17.4419    3.3125   -0.1097 H         1 <0>         0.0517
     56 H23        16.2498    2.1022    0.4216 H         1 <0>         0.0470
     57 H24        18.3914    1.7377    1.4147 H         1 <0>         0.3779
@<TRIPOS>BOND
     1    1    5 2
     2    1    2 1
     3    1   34 1
     4    2    3 2
     5    2   35 1
     6    3    4 1
     7    3    6 1
     8    4    5 1
     9    5   36 1
    10    6   17 2
    11    6    7 1
    12    7    8 2
    13    8   16 1
    14    8    9 1
    15    9   13 2
    16    9   10 1
    17   10   11 2
    18   10   37 1
    19   11   12 1
    20   12   13 1
    21   12   19 1
    22   13   14 1
    23   14   15 2
    24   15   16 1
    25   15   18 1
    26   16   17 1
    27   18   38 1
    28   18   39 1
    29   19   20 1
    30   19   40 1
    31   19   41 1
    32   20   21 1
    33   20   42 1
    34   20   43 1
    35   21   26 ar
    36   21   22 ar
    37   22   23 ar
    38   22   44 1
    39   23   24 ar
    40   23   45 1
    41   24   25 ar
    42   24   27 1
    43   25   26 ar
    44   25   46 1
    45   26   47 1
    46   27   28 1
    47   27   31 1
    48   28   29 1
    49   28   48 1
    50   28   49 1
    51   29   30 1
    52   29   50 1
    53   29   51 1
    54   30   52 1
    55   31   32 1
    56   31   53 1
    57   31   54 1
    58   32   33 1
    59   32   55 1
    60   32   56 1
    61   33   57 1
@<TRIPOS>MOLECULE
CHEMBL257982
   37    40     0     0     0
SMALL
USER_CHARGES

@<TRIPOS>ATOM
      1 C1         -0.0167    1.3780    0.0096 C.ar      1 <0>        -0.1362
      2 C2          1.1706    2.0866    0.0021 C.ar      1 <0>        -0.0789
      3 C3          2.3773    1.4137   -0.0131 C.ar      1 <0>        -0.1628
      4 C4          2.3974    0.0291   -0.0207 C.ar      1 <0>         0.1232
      5 C5          1.2080   -0.6793   -0.0132 C.ar      1 <0>        -0.1584
      6 C6          0.0021   -0.0041    0.0020 C.ar      1 <0>        -0.0627
      7 C7          1.2281   -2.1862   -0.0220 C.3       1 <0>         0.1877
      8 N1          1.3684   -2.6807    1.3499 N.pl3     1 <0>        -0.3831
      9 C8          2.5451   -2.9302    1.9934 C.ar      1 <0>         0.3902
     10 C9          2.2065   -3.3883    3.2848 C.ar      1 <0>        -0.2983
     11 C10         0.7972   -3.3945    3.3637 C.2       1 <0>         0.1311
     12 N2          0.3177   -2.9730    2.2285 N.2       1 <0>        -0.2536
     13 C11         3.2491   -3.7228    4.1712 C.ar      1 <0>         0.3483
     14 N3          4.5030   -3.5919    3.7514 N.ar      1 <0>        -0.5762
     15 C12         4.7749   -3.1570    2.5279 C.ar      1 <0>         0.6131
     16 N4          3.8288   -2.8313    1.6629 N.ar      1 <0>        -0.5789
     17 N5          6.0991   -3.0389    2.1421 N.pl3     1 <0>        -0.8131
     18 C13         2.9543   -4.2088    5.5398 C.ar      1 <0>         0.1516
     19 C14         3.8865   -5.0011    6.2076 C.ar      1 <0>        -0.1171
     20 C15         3.5968   -5.4476    7.4858 C.ar      1 <0>        -0.0802
     21 C16         2.3838   -5.0868    8.0542 C.ar      1 <0>        -0.1534
     22 C17         1.5049   -4.2974    7.3337 C.ar      1 <0>         0.1017
     23 N6          1.8073   -3.8817    6.1216 N.ar      1 <0>        -0.4599
     24 F1          3.5766   -0.6299   -0.0360 F         1 <0>        -0.1206
     25 H1         -0.9594    1.9048    0.0260 H         1 <0>         0.1327
     26 H2          1.1547    3.1665    0.0077 H         1 <0>         0.1343
     27 H3          3.3046    1.9675   -0.0193 H         1 <0>         0.1361
     28 H4         -0.9259   -0.5565    0.0083 H         1 <0>         0.1360
     29 H5          0.2975   -2.5595   -0.4494 H         1 <0>         0.1104
     30 H6          2.0689   -2.5348   -0.6216 H         1 <0>         0.1066
     31 H7          0.2147   -3.6936    4.2226 H         1 <0>         0.2020
     32 H8          6.8076   -3.2722    2.7622 H         1 <0>         0.4172
     33 H9          6.3186   -2.7228    1.2517 H         1 <0>         0.4173
     34 H10         4.8213   -5.2633    5.7346 H         1 <0>         0.1461
     35 H11         4.2993   -6.0633    8.0280 H         1 <0>         0.1417
     36 H12         2.1278   -5.4191    9.0494 H         1 <0>         0.1410
     37 H13         0.5598   -4.0147    7.7733 H         1 <0>         0.1652
@<TRIPOS>BOND
     1    1    6 ar
     2    1    2 ar
     3    1   25 1
     4    2    3 ar
     5    2   26 1
     6    3    4 ar
     7    3   27 1
     8    4    5 ar
     9    4   24 1
    10    5    6 ar
    11    5    7 1
    12    6   28 1
    13    7    8 1
    14    7   29 1
    15    7   30 1
    16    8   12 1
    17    8    9 1
    18    9   16 ar
    19    9   10 ar
    20   10   11 1
    21   10   13 ar
    22   11   12 2
    23   11   31 1
    24   13   14 ar
    25   13   18 1
    26   14   15 ar
    27   15   16 ar
    28   15   17 1
    29   17   32 1
    30   17   33 1
    31   18   23 ar
    32   18   19 ar
    33   19   20 ar
    34   19   34 1
    35   20   21 ar
    36   20   35 1
    37   21   22 ar
    38   21   36 1
    39   22   23 ar
    40   22   37 1
@<TRIPOS>MOLECULE
CHEMBL406314
   32    34     0     0     0
SMALL
USER_CHARGES

@<TRIPOS>ATOM
      1 C1         -0.9592    1.2672    0.1566 C.3       1 <0>         0.0445
      2 N1         -0.4142   -0.0897    0.0668 N.pl3     1 <0>        -0.3839
      3 C2         -0.3381   -0.8617   -1.0573 C.2       1 <0>         0.0406
      4 C3          0.2284   -2.0335   -0.6952 C.2       1 <0>         0.0198
      5 N2          0.4941   -1.9865    0.6128 N.pl3     1 <0>        -0.4458
      6 C4          0.1191   -0.8196    1.0896 C.cat     1 <0>         0.3412
      7 C5          0.2490   -0.3762    2.4929 C.ar      1 <0>         0.2896
      8 C6          0.6640    0.9117    2.7960 C.ar      1 <0>        -0.2873
      9 C7          0.7909    1.3437    4.1364 C.ar      1 <0>         0.2525
     10 C8          1.2205    2.6725    4.3011 C.2       1 <0>        -0.1659
     11 C9          1.4795    3.4389    3.2248 C.2       1 <0>        -0.0667
     12 S1          1.1370    2.3407    1.8598 S.3       1 <0>         0.0734
     13 N3          0.4832    0.4229    5.0811 N.ar      1 <0>        -0.5178
     14 C10         0.0931   -0.7901    4.7554 C.ar      1 <0>         0.5837
     15 N4         -0.0357   -1.2047    3.5026 N.ar      1 <0>        -0.5217
     16 N5         -0.2049   -1.6803    5.7758 N.pl3     1 <0>        -0.5778
     17 C11        -0.0819   -1.2600    7.1738 C.3       1 <0>         0.0924
     18 C12        -0.6429   -3.0412    5.4559 C.3       1 <0>         0.0877
     19 H1         -0.1911    1.9868   -0.1270 H         1 <0>         0.1220
     20 H2         -1.8116    1.3616   -0.5162 H         1 <0>         0.1309
     21 H3         -1.2804    1.4628    1.1796 H         1 <0>         0.1128
     22 H4         -0.6686   -0.5875   -2.0482 H         1 <0>         0.2346
     23 H5          0.4314   -2.8667   -1.3517 H         1 <0>         0.2336
     24 H6          1.3428    3.0797    5.2940 H         1 <0>         0.1659
     25 H7          1.8126    4.4658    3.1946 H         1 <0>         0.2150
     26 H8         -1.0289   -0.8390    7.5113 H         1 <0>         0.0636
     27 H9          0.1733   -2.1214    7.7910 H         1 <0>         0.0814
     28 H10         0.7015   -0.5069    7.2591 H         1 <0>         0.0859
     29 H11        -0.6739   -3.1680    4.3737 H         1 <0>         0.0879
     30 H12         0.0562   -3.7584    5.8859 H         1 <0>         0.0706
     31 H13        -1.6370   -3.2097    5.8700 H         1 <0>         0.0702
     32 H14         0.9027   -2.6989    1.1289 H         1 <0>         0.4673
@<TRIPOS>BOND
     1    1    2 1
     2    1   19 1
     3    1   20 1
     4    1   21 1
     5    2    6 1
     6    2    3 1
     7    3    4 2
     8    3   22 1
     9    4    5 1
    10    4   23 1
    11    5    6 2
    12    5   32 1
    13    6    7 1
    14    7   15 ar
    15    7    8 ar
    16    8   12 1
    17    8    9 ar
    18    9   10 1
    19    9   13 ar
    20   10   11 2
    21   10   24 1
    22   11   12 1
    23   11   25 1
    24   13   14 ar
    25   14   15 ar
    26   14   16 1
    27   16   17 1
    28   16   18 1
    29   17   26 1
    30   17   27 1
    31   17   28 1
    32   18   29 1
    33   18   30 1
    34   18   31 1
@<TRIPOS>MOLECULE
CHEMBL1088398
   35    37     0     0     0
SMALL
USER_CHARGES

@<TRIPOS>ATOM
      1 C1          0.0262    1.6794    0.2698 C.3       1 <0>        -0.1055
      2 C2          0.0079    0.1781    0.1396 C.2       1 <0>        -0.0597
      3 C3         -0.0233   -0.3981   -1.0731 C.2       1 <0>        -0.1639
      4 S1         -0.0331   -2.1419   -0.7021 S.3       1 <0>         0.1427
      5 C4          0.0050   -2.0463    1.0695 C.2       1 <0>         0.1043
      6 C5          0.0298   -0.6612    1.3225 C.2       1 <0>        -0.2435
      7 C6          0.0682   -0.2806    2.7037 C.2       1 <0>         0.5573
      8 O1          0.0872    0.8963    3.0200 O.2       1 <0>        -0.5128
      9 N1          0.0825   -1.2408    3.6466 N.am      1 <0>        -0.5203
     10 C7          0.0611   -2.5657    3.3088 C.2       1 <0>         0.4551
     11 N2          0.0166   -2.9413    2.0483 N.2       1 <0>        -0.4749
     12 C8          0.0784   -3.5895    4.3740 C.ar      1 <0>        -0.0673
     13 C9         -0.9078   -4.5770    4.4134 C.ar      1 <0>        -0.0593
     14 C10        -0.8858   -5.5299    5.4106 C.ar      1 <0>        -0.1170
     15 C11         0.1106   -5.5085    6.3704 C.ar      1 <0>        -0.0907
     16 C12         1.0910   -4.5326    6.3373 C.ar      1 <0>        -0.1157
     17 C13         1.0842   -3.5772    5.3422 C.ar      1 <0>        -0.0954
     18 C14         0.1221   -0.8596    5.0606 C.3       1 <0>         0.1924
     19 C15        -1.2475   -0.6153    5.5415 C.1       1 <0>        -0.2206
     20 C16        -2.3398   -0.4204    5.9251 C.1       1 <0>        -0.1499
     21 C17        -0.0457    0.2694   -2.4241 C.3       1 <0>        -0.0677
     22 H1          1.0579    2.0311    0.2749 H         1 <0>         0.0725
     23 H2         -0.5049    2.1236   -0.5720 H         1 <0>         0.0680
     24 H3         -0.4610    1.9693    1.2007 H         1 <0>         0.0823
     25 H4         -1.6863   -4.5947    3.6650 H         1 <0>         0.1330
     26 H5         -1.6482   -6.2941    5.4425 H         1 <0>         0.1348
     27 H6          0.1230   -6.2566    7.1492 H         1 <0>         0.1322
     28 H7          1.8657   -4.5214    7.0897 H         1 <0>         0.1356
     29 H8          1.8525   -2.8187    5.3149 H         1 <0>         0.1328
     30 H9          0.5729   -1.6644    5.6414 H         1 <0>         0.1294
     31 H10         0.7150    0.0477    5.1759 H         1 <0>         0.1244
     32 H11        -3.3168   -0.2461    6.2681 H         1 <0>         0.2239
     33 H12         0.9763    0.4206   -2.7716 H         1 <0>         0.0819
     34 H13        -0.5807   -0.3627   -3.1328 H         1 <0>         0.0764
     35 H14        -0.5488    1.2331   -2.3449 H         1 <0>         0.0852
@<TRIPOS>BOND
     1    1    2 1
     2    1   22 1
     3    1   23 1
     4    1   24 1
     5    2    6 1
     6    2    3 2
     7    3    4 1
     8    3   21 1
     9    4    5 1
    10    5   11 1
    11    5    6 2
    12    6    7 1
    13    7    8 2
    14    7    9 am
    15    9   10 1
    16    9   18 1
    17   10   11 2
    18   10   12 1
    19   12   17 ar
    20   12   13 ar
    21   13   14 ar
    22   13   25 1
    23   14   15 ar
    24   14   26 1
    25   15   16 ar
    26   15   27 1
    27   16   17 ar
    28   16   28 1
    29   17   29 1
    30   18   19 1
    31   18   30 1
    32   18   31 1
    33   19   20 3
    34   20   32 1
    35   21   33 1
    36   21   34 1
    37   21   35 1
@<TRIPOS>MOLECULE
CHEMBL75416
   85    87     0     0     0
SMALL
USER_CHARGES

@<TRIPOS>ATOM
      1 C1          0.7664    2.9112   -0.8910 C.3       1 <0>        -0.1909
      2 C2         -0.0696    2.0852   -1.8706 C.3       1 <0>         0.1179
      3 C3         -0.4945    0.7767   -1.2012 C.3       1 <0>        -0.1900
      4 C4         -1.3137    2.8788   -2.2746 C.3       1 <0>        -0.1464
      5 O1          0.7084    1.7946   -3.0335 O.3       1 <0>        -0.3243
      6 C5          1.8415    1.0987   -2.8503 C.2       1 <0>         0.4537
      7 O2          2.1621    0.7478   -1.7395 O.2       1 <0>        -0.4675
      8 C6          2.7137    0.7549   -4.0302 C.3       1 <0>         0.0281
      9 C7          2.8124   -0.7777   -4.1813 C.3       1 <0>        -0.1300
     10 C8          4.2899   -0.9929   -4.6027 C.3       1 <0>        -0.1357
     11 C9          5.0109    0.1119   -3.7909 C.3       1 <0>        -0.0145
     12 N1          4.0807    1.2608   -3.8078 N.4       1 <0>        -0.3715
     13 C10         4.1433    1.9666   -2.5209 C.3       1 <0>        -0.0694
     14 C11         5.5097    2.6390   -2.3741 C.3       1 <0>         0.0798
     15 C12         5.6216    3.2684   -0.9840 C.3       1 <0>         0.1317
     16 H1          5.4264    2.5105   -0.2253 H         1 <0>         0.1104
     17 C13         4.5982    4.3980   -0.8517 C.3       1 <0>        -0.1018
     18 C14         4.6233    4.9362    0.5557 C.ar      1 <0>        -0.0764
     19 C15         3.8026    4.3844    1.5215 C.ar      1 <0>        -0.1043
     20 C16         3.8256    4.8781    2.8125 C.ar      1 <0>        -0.1090
     21 C17         4.6697    5.9234    3.1378 C.ar      1 <0>        -0.1091
     22 C18         5.4910    6.4747    2.1722 C.ar      1 <0>        -0.1078
     23 C19         5.4711    5.9781    0.8822 C.ar      1 <0>        -0.1091
     24 N2          6.9711    3.8079   -0.7994 N.am      1 <0>        -0.7269
     25 C20         7.4773    3.9468    0.4419 C.2       1 <0>         0.5215
     26 O3          6.8157    3.6251    1.4062 O.2       1 <0>        -0.4756
     27 C21         8.8655    4.5018    0.6318 C.3       1 <0>         0.1684
     28 H2          8.9153    5.5069    0.2131 H         1 <0>         0.1235
     29 C22         9.8766    3.6016   -0.0811 C.3       1 <0>        -0.1633
     30 C23         9.8556    2.2300    0.5430 C.2       1 <0>         0.5114
     31 O4          9.0565    1.9744    1.4187 O.2       1 <0>        -0.5220
     32 N3         10.7250    1.2875    0.1280 N.am      1 <0>        -0.8548
     33 N4          9.1798    4.5523    2.0618 N.am      1 <0>        -0.6846
     34 C24        10.1371    5.3873    2.5123 C.2       1 <0>         0.6519
     35 O5         10.6745    6.1641    1.7480 O.2       1 <0>        -0.5735
     36 O6         10.4978    5.3607    3.8092 O.3       1 <0>        -0.3535
     37 C25        11.5188    6.2733    4.2174 C.3       1 <0>         0.1297
     38 C26        11.7877    6.1003    5.6901 C.ar      1 <0>        -0.1039
     39 C27        11.0730    6.8388    6.6146 C.ar      1 <0>        -0.0928
     40 C28        11.3196    6.6801    7.9654 C.ar      1 <0>        -0.1224
     41 C29        12.2806    5.7826    8.3918 C.ar      1 <0>        -0.1050
     42 C30        12.9947    5.0435    7.4674 C.ar      1 <0>        -0.1227
     43 C31        12.7451    5.1990    6.1167 C.ar      1 <0>        -0.0933
     44 O7          5.6502    3.6547   -3.3694 O.3       1 <0>        -0.5492
     45 H3          1.6527    2.3458   -0.6032 H         1 <0>         0.0799
     46 H4          1.0691    3.8434   -1.3679 H         1 <0>         0.0655
     47 H5          0.1729    3.1329   -0.0040 H         1 <0>         0.0868
     48 H6         -1.0880    0.9983   -0.3142 H         1 <0>         0.0835
     49 H7         -1.0901    0.1882   -1.8991 H         1 <0>         0.0680
     50 H8          0.3918    0.2113   -0.9134 H         1 <0>         0.0821
     51 H9         -1.0110    3.8110   -2.7515 H         1 <0>         0.0713
     52 H10        -1.9093    2.2903   -2.9725 H         1 <0>         0.0731
     53 H11        -1.9072    3.1005   -1.3876 H         1 <0>         0.0902
     54 H12         2.2991    1.1935   -4.9379 H         1 <0>         0.1710
     55 H13         2.6064   -1.2726   -3.2322 H         1 <0>         0.1101
     56 H14         2.1346   -1.1329   -4.9575 H         1 <0>         0.1276
     57 H15         4.6390   -1.9832   -4.3103 H         1 <0>         0.1261
     58 H16         4.4171   -0.8363   -5.6739 H         1 <0>         0.1070
     59 H17         5.1842   -0.2211   -2.7676 H         1 <0>         0.1374
     60 H18         5.9534    0.3797   -4.2685 H         1 <0>         0.1450
     61 H19         3.3599    2.7235   -2.4832 H         1 <0>         0.1308
     62 H20         3.9997    1.2542   -1.7085 H         1 <0>         0.1717
     63 H21         6.2963    1.8951   -2.5005 H         1 <0>         0.1334
     64 H22         4.8463    5.1967   -1.5506 H         1 <0>         0.0823
     65 H23         3.6029    4.0147   -1.0764 H         1 <0>         0.0753
     66 H24         3.1432    3.5677    1.2674 H         1 <0>         0.1107
     67 H25         3.1839    4.4474    3.5669 H         1 <0>         0.1191
     68 H26         4.6871    6.3096    4.1462 H         1 <0>         0.1198
     69 H27         6.1502    7.2916    2.4262 H         1 <0>         0.1170
     70 H28         6.1155    6.4064    0.1287 H         1 <0>         0.1100
     71 H29         7.5002    4.0652   -1.5706 H         1 <0>         0.4047
     72 H30         9.6139    3.5247   -1.1362 H         1 <0>         0.1088
     73 H31        10.8746    4.0292    0.0147 H         1 <0>         0.1160
     74 H32        11.3642    1.4920   -0.5724 H         1 <0>         0.4027
     75 H33        10.7116    0.4047    0.5297 H         1 <0>         0.4049
     76 H34         8.6990    3.9848    2.6844 H         1 <0>         0.4251
     77 H35        12.4311    6.0729    3.6555 H         1 <0>         0.0785
     78 H36        11.1910    7.2950    4.0254 H         1 <0>         0.0794
     79 H37        10.3222    7.5400    6.2814 H         1 <0>         0.1243
     80 H38        10.7617    7.2576    8.6877 H         1 <0>         0.1272
     81 H39        12.4738    5.6592    9.4472 H         1 <0>         0.1266
     82 H40        13.7458    4.3425    7.8005 H         1 <0>         0.1270
     83 H41        13.3004    4.6188    5.3946 H         1 <0>         0.1236
     84 H42         4.9820    4.3517   -3.3172 H         1 <0>         0.3914
     85 H43         4.3344    1.8923   -4.5527 H         1 <0>         0.4378
@<TRIPOS>BOND
     1    1    2 1
     2    1   45 1
     3    1   46 1
     4    1   47 1
     5    2    3 1
     6    2    4 1
     7    2    5 1
     8    3   48 1
     9    3   49 1
    10    3   50 1
    11    4   51 1
    12    4   52 1
    13    4   53 1
    14    5    6 1
    15    6    7 2
    16    6    8 1
    17    8   12 1
    18    8    9 1
    19    8   54 1
    20    9   10 1
    21    9   55 1
    22    9   56 1
    23   10   11 1
    24   10   57 1
    25   10   58 1
    26   11   12 1
    27   11   59 1
    28   11   60 1
    29   12   13 1
    30   12   85 1
    31   13   14 1
    32   13   61 1
    33   13   62 1
    34   14   15 1
    35   14   44 1
    36   14   63 1
    37   15   16 1
    38   15   17 1
    39   15   24 1
    40   17   18 1
    41   17   64 1
    42   17   65 1
    43   18   23 ar
    44   18   19 ar
    45   19   20 ar
    46   19   66 1
    47   20   21 ar
    48   20   67 1
    49   21   22 ar
    50   21   68 1
    51   22   23 ar
    52   22   69 1
    53   23   70 1
    54   24   25 am
    55   24   71 1
    56   25   26 2
    57   25   27 1
    58   27   28 1
    59   27   29 1
    60   27   33 1
    61   29   30 1
    62   29   72 1
    63   29   73 1
    64   30   31 2
    65   30   32 am
    66   32   74 1
    67   32   75 1
    68   33   34 am
    69   33   76 1
    70   34   35 2
    71   34   36 1
    72   36   37 1
    73   37   38 1
    74   37   77 1
    75   37   78 1
    76   38   43 ar
    77   38   39 ar
    78   39   40 ar
    79   39   79 1
    80   40   41 ar
    81   40   80 1
    82   41   42 ar
    83   41   81 1
    84   42   43 ar
    85   42   82 1
    86   43   83 1
    87   44   84 1
@<TRIPOS>MOLECULE
CHEMBL17094
   37    40     0     0     0
SMALL
USER_CHARGES

@<TRIPOS>ATOM
      1 C1         -0.0187    1.5258    0.0104 C.3       1 <0>        -0.1529
      2 C2          0.0021   -0.0041    0.0020 C.3       1 <0>        -0.1200
      3 C3          0.7182   -0.4975   -1.2568 C.3       1 <0>        -0.1368
      4 C4          0.7390   -2.0273   -1.2652 C.3       1 <0>         0.1363
      5 N1          1.4247   -2.4998   -2.4705 N.pl3     1 <0>        -0.3537
      6 C5          0.8380   -2.7622   -3.6722 C.2       1 <0>         0.3694
      7 C6          1.8621   -3.1866   -4.5323 C.2       1 <0>        -0.2676
      8 C7          3.0614   -3.1640   -3.7980 C.2       1 <0>         0.1300
      9 N2          2.7969   -2.7537   -2.5879 N.2       1 <0>        -0.2635
     10 C8          1.5034   -3.5384   -5.9066 C.2       1 <0>         0.4067
     11 N3          2.1773   -3.9619   -6.9557 N.2       1 <0>        -0.5163
     12 C9          1.3417   -4.1335   -7.9879 C.2       1 <0>         0.3504
     13 N4          0.1159   -3.8206   -7.6119 N.2       1 <0>        -0.2999
     14 N5          0.1856   -3.4308   -6.2683 N.pl3     1 <0>        -0.3765
     15 C10        -0.7389   -3.0073   -5.3582 C.2       1 <0>         0.6913
     16 N6         -0.4209   -2.6916   -4.1268 N.2       1 <0>        -0.5612
     17 N7         -2.0541   -2.9086   -5.7480 N.pl3     1 <0>        -0.8024
     18 C11         1.7306   -4.5995   -9.3354 C.2       1 <0>         0.0425
     19 C12         0.8932   -4.7724  -10.3923 C.2       1 <0>        -0.1372
     20 C13         1.6842   -5.2243  -11.4672 C.2       1 <0>        -0.2200
     21 C14         2.9522   -5.3042  -11.0180 C.2       1 <0>        -0.0042
     22 O1          2.9773   -4.9212   -9.7313 O.3       1 <0>        -0.1522
     23 H1          1.0039    1.9031    0.0027 H         1 <0>         0.0553
     24 H2         -0.5459    1.8868   -0.8726 H         1 <0>         0.0543
     25 H3         -0.5289    1.8773    0.9072 H         1 <0>         0.0579
     26 H4          0.5293   -0.3651    0.8851 H         1 <0>         0.0672
     27 H5         -1.0205   -0.3814    0.0098 H         1 <0>         0.0663
     28 H6          0.1910   -0.1364   -2.1398 H         1 <0>         0.0692
     29 H7          1.7408   -0.1202   -1.2645 H         1 <0>         0.0735
     30 H8          1.2661   -2.3884   -0.3821 H         1 <0>         0.1019
     31 H9         -0.2836   -2.4046   -1.2575 H         1 <0>         0.0995
     32 H10         4.0368   -3.4361   -4.1734 H         1 <0>         0.2023
     33 H11        -2.3096   -3.1380   -6.6552 H         1 <0>         0.4263
     34 H12        -2.7262   -2.6095   -5.1158 H         1 <0>         0.4303
     35 H13        -0.1724   -4.5974  -10.4054 H         1 <0>         0.1599
     36 H14         1.3395   -5.4621  -12.4627 H         1 <0>         0.1594
     37 H15         3.8069   -5.6199  -11.5978 H         1 <0>         0.2142
@<TRIPOS>BOND
     1    1    2 1
     2    1   23 1
     3    1   24 1
     4    1   25 1
     5    2    3 1
     6    2   26 1
     7    2   27 1
     8    3    4 1
     9    3   28 1
    10    3   29 1
    11    4    5 1
    12    4   30 1
    13    4   31 1
    14    5    9 1
    15    5    6 1
    16    6   16 1
    17    6    7 2
    18    7    8 1
    19    7   10 1
    20    8    9 2
    21    8   32 1
    22   10   14 1
    23   10   11 2
    24   11   12 1
    25   12   13 2
    26   12   18 1
    27   13   14 1
    28   14   15 1
    29   15   16 2
    30   15   17 1
    31   17   33 1
    32   17   34 1
    33   18   22 1
    34   18   19 2
    35   19   20 1
    36   19   35 1
    37   20   21 2
    38   20   36 1
    39   21   22 1
    40   21   37 1
@<TRIPOS>MOLECULE
CHEMBL1086977
   31    34     0     0     0
SMALL
USER_CHARGES

@<TRIPOS>ATOM
      1 C1         -0.0167    1.3824    0.0096 C.ar      1 <0>        -0.0934
      2 C2          1.1644    2.0975    0.0022 C.ar      1 <0>        -0.1029
      3 C3          2.3816    1.4344   -0.0135 C.ar      1 <0>        -0.0497
      4 C4          2.4138    0.0464   -0.0213 C.ar      1 <0>        -0.1469
      5 C5          1.2127   -0.6825   -0.0132 C.ar      1 <0>        -0.0410
      6 C6          0.0021   -0.0041    0.0020 C.ar      1 <0>        -0.0667
      7 C7          1.5389   -2.1309   -0.0234 C.ar      1 <0>         0.3095
      8 C8          2.9413   -2.2738   -0.0377 C.ar      1 <0>        -0.3432
      9 C9          3.4849   -3.5661   -0.0492 C.ar      1 <0>         0.3352
     10 N1          2.6529   -4.6074   -0.0462 N.ar      1 <0>        -0.5663
     11 C10         1.3413   -4.4297   -0.0327 C.ar      1 <0>         0.6038
     12 N2          0.7873   -3.2214   -0.0208 N.ar      1 <0>        -0.5585
     13 N3          0.5201   -5.5377   -0.0306 N.pl3     1 <0>        -0.8021
     14 C11         4.9533   -3.7700   -0.0649 C.ar      1 <0>        -0.0308
     15 C12         5.7935   -2.8890   -0.7524 C.ar      1 <0>        -0.1157
     16 C13         7.1552   -3.1160   -0.7406 C.ar      1 <0>         0.0974
     17 N4          7.6644   -4.1458   -0.0932 N.ar      1 <0>        -0.4694
     18 C14         6.9076   -5.0002    0.5674 C.ar      1 <0>         0.0909
     19 C15         5.5365   -4.8452    0.6121 C.ar      1 <0>        -0.1227
     20 C16         3.5359   -0.9258   -0.0369 C.2       1 <0>         0.4643
     21 O1          4.7211   -0.6599   -0.0478 O.2       1 <0>        -0.4127
     22 H1         -0.9611    1.9062    0.0260 H         1 <0>         0.1407
     23 H2          1.1399    3.1772    0.0083 H         1 <0>         0.1413
     24 H3          3.3036    1.9967   -0.0200 H         1 <0>         0.1415
     25 H4         -0.9260   -0.5564    0.0083 H         1 <0>         0.1402
     26 H5          0.9062   -6.4275   -0.0390 H         1 <0>         0.4217
     27 H6         -0.4435   -5.4273   -0.0207 H         1 <0>         0.4208
     28 H7          5.3833   -2.0438   -1.2850 H         1 <0>         0.1471
     29 H8          7.8124   -2.4412   -1.2690 H         1 <0>         0.1630
     30 H9          7.3670   -5.8302    1.0836 H         1 <0>         0.1622
     31 H10         4.9232   -5.5461    1.1589 H         1 <0>         0.1422
@<TRIPOS>BOND
     1    1    6 ar
     2    1    2 ar
     3    1   22 1
     4    2    3 ar
     5    2   23 1
     6    3    4 ar
     7    3   24 1
     8    4   20 1
     9    4    5 ar
    10    5    6 ar
    11    5    7 1
    12    6   25 1
    13    7   12 ar
    14    7    8 ar
    15    8    9 ar
    16    8   20 1
    17    9   10 ar
    18    9   14 1
    19   10   11 ar
    20   11   12 ar
    21   11   13 1
    22   13   26 1
    23   13   27 1
    24   14   19 ar
    25   14   15 ar
    26   15   16 ar
    27   15   28 1
    28   16   17 ar
    29   16   29 1
    30   17   18 ar
    31   18   19 ar
    32   18   30 1
    33   19   31 1
    34   20   21 2
@<TRIPOS>MOLECULE
CHEMBL49925
   48    51     0     0     0
SMALL
USER_CHARGES

@<TRIPOS>ATOM
      1 C1         -0.4031    1.4267    0.0572 C.3       1 <0>         0.0659
      2 N1         -0.1700   -0.0192    0.0230 N.pl3     1 <0>        -0.4630
      3 C2         -0.1955   -0.8214   -1.0909 C.ar      1 <0>         0.3114
      4 C3          0.0828   -2.1262   -0.6409 C.ar      1 <0>        -0.0980
      5 C4          0.1197   -3.1658   -1.5903 C.ar      1 <0>         0.5180
      6 N2         -0.1087   -2.8712   -2.8634 N.ar      1 <0>        -0.5721
      7 C5         -0.3679   -1.6234   -3.2445 C.ar      1 <0>         0.5006
      8 N3         -0.4120   -0.6155   -2.3834 N.ar      1 <0>        -0.5367
      9 C6         -0.6074   -1.3593   -4.6314 C.1       1 <0>        -0.1030
     10 C7         -0.8037   -1.1428   -5.7684 C.1       1 <0>        -0.1080
     11 C8         -1.0498   -0.8713   -7.1941 C.3       1 <0>         0.2481
     12 C9          0.1797   -1.2757   -8.0099 C.3       1 <0>        -0.1396
     13 C10         1.3919   -0.4696   -7.5392 C.3       1 <0>        -0.1212
     14 C11         1.1187    1.0231   -7.7343 C.3       1 <0>        -0.1227
     15 C12        -0.1108    1.4275   -6.9184 C.3       1 <0>        -0.1214
     16 C13        -1.3230    0.6214   -7.3892 C.3       1 <0>        -0.1023
     17 O1         -2.1820   -1.6243   -7.6338 O.3       1 <0>        -0.5446
     18 N4          0.3889   -4.4669   -1.2033 N.pl3     1 <0>        -0.8117
     19 N5          0.2612   -2.0618    0.6967 N.2       1 <0>        -0.4386
     20 C14         0.1199   -0.8215    1.0972 C.2       1 <0>         0.3114
     21 C15         0.2499   -0.3581    2.4956 C.ar      1 <0>        -0.0227
     22 C16         0.1596   -1.2730    3.5473 C.ar      1 <0>        -0.0410
     23 C17         0.2812   -0.8425    4.8534 C.ar      1 <0>        -0.1140
     24 C18         0.4926    0.4937    5.1299 C.ar      1 <0>        -0.0530
     25 C19         0.5849    1.4195    4.0878 C.ar      1 <0>        -0.0208
     26 C20         0.4683    0.9905    2.7665 C.ar      1 <0>        -0.0676
     27 C21         0.8043    2.8050    4.3758 C.1       1 <0>         0.2473
     28 N6          0.9783    3.9041    4.6044 N.1       1 <0>        -0.4015
     29 H1          0.5526    1.9497    0.0230 H         1 <0>         0.0853
     30 H2         -1.0074    1.7177   -0.8020 H         1 <0>         0.1008
     31 H3         -0.9280    1.6885    0.9759 H         1 <0>         0.0966
     32 H4          0.3743   -2.3392   -7.8709 H         1 <0>         0.0721
     33 H5         -0.0026   -1.0747   -9.0656 H         1 <0>         0.0858
     34 H6          1.5742   -0.6706   -6.4835 H         1 <0>         0.0644
     35 H7          2.2678   -0.7577   -8.1204 H         1 <0>         0.0698
     36 H8          1.9823    1.5974   -7.3989 H         1 <0>         0.0658
     37 H9          0.9364    1.2241   -8.7900 H         1 <0>         0.0667
     38 H10         0.0715    1.2265   -5.8628 H         1 <0>         0.0674
     39 H11        -0.3054    2.4909   -7.0575 H         1 <0>         0.0729
     40 H12        -1.5053    0.8224   -8.4449 H         1 <0>         0.0838
     41 H13        -2.1989    0.9095   -6.8080 H         1 <0>         0.0757
     42 H14        -2.0789   -2.5811   -7.5392 H         1 <0>         0.3840
     43 H15         0.5547   -4.6708   -0.2696 H         1 <0>         0.4216
     44 H16         0.4118   -5.1751   -1.8658 H         1 <0>         0.4132
     45 H17        -0.0060   -2.3195    3.3381 H         1 <0>         0.1470
     46 H18         0.2102   -1.5542    5.6627 H         1 <0>         0.1459
     47 H19         0.5865    0.8239    6.1539 H         1 <0>         0.1409
     48 H20         0.5434    1.7012    1.9567 H         1 <0>         0.1413
@<TRIPOS>BOND
     1    1    2 1
     2    1   29 1
     3    1   30 1
     4    1   31 1
     5    2   20 1
     6    2    3 1
     7    3    8 ar
     8    3    4 ar
     9    4    5 ar
    10    4   19 1
    11    5    6 ar
    12    5   18 1
    13    6    7 ar
    14    7    8 ar
    15    7    9 1
    16    9   10 3
    17   10   11 1
    18   11   16 1
    19   11   12 1
    20   11   17 1
    21   12   13 1
    22   12   32 1
    23   12   33 1
    24   13   14 1
    25   13   34 1
    26   13   35 1
    27   14   15 1
    28   14   36 1
    29   14   37 1
    30   15   16 1
    31   15   38 1
    32   15   39 1
    33   16   40 1
    34   16   41 1
    35   17   42 1
    36   18   43 1
    37   18   44 1
    38   19   20 2
    39   20   21 1
    40   21   26 ar
    41   21   22 ar
    42   22   23 ar
    43   22   45 1
    44   23   24 ar
    45   23   46 1
    46   24   25 ar
    47   24   47 1
    48   25   26 ar
    49   25   27 1
    50   26   48 1
    51   27   28 3
@<TRIPOS>MOLECULE
CHEMBL517886
   36    39     0     0     0
SMALL
USER_CHARGES

@<TRIPOS>ATOM
      1 C1         -0.0162    1.3451    0.0094 C.2       1 <0>        -0.2250
      2 C2          1.3225    1.7763   -0.0010 C.2       1 <0>        -0.1236
      3 C3          2.0959    0.6543   -0.0144 C.2       1 <0>        -0.0072
      4 O1          1.2782   -0.4173   -0.0124 O.3       1 <0>        -0.1488
      5 C4          0.0021   -0.0041    0.0020 C.2       1 <0>         0.0008
      6 C5          3.5677    0.6188   -0.0291 C.ar      1 <0>         0.4083
      7 C6          4.2734   -0.4010    0.6510 C.ar      1 <0>        -0.1550
      8 C7          5.6790   -0.3802    0.5989 C.ar      1 <0>         0.3615
      9 N1          6.2899    0.5856   -0.0804 N.ar      1 <0>        -0.5798
     10 C8          5.5905    1.5202   -0.7032 C.ar      1 <0>         0.6207
     11 N2          4.2647    1.5429   -0.6876 N.ar      1 <0>        -0.5509
     12 N3          6.2669    2.5076   -1.3991 N.pl3     1 <0>        -0.8039
     13 N4          6.0998   -1.4584    1.3276 N.pl3     1 <0>        -0.3796
     14 N5          4.9441   -2.0995    1.7988 N.2       1 <0>         0.0019
     15 N6          3.9043   -1.4608    1.3883 N.2       1 <0>        -0.1696
     16 C9          7.4865   -1.8648    1.5687 C.3       1 <0>         0.1841
     17 C10         7.9940   -1.2001    2.8224 C.ar      1 <0>        -0.1601
     18 C11         8.6069    0.0371    2.7474 C.ar      1 <0>        -0.0470
     19 C12         9.0740    0.6498    3.8942 C.ar      1 <0>        -0.1799
     20 C13         8.9275    0.0225    5.1240 C.ar      1 <0>         0.2053
     21 C14         8.3104   -1.2217    5.1971 C.ar      1 <0>         0.0126
     22 C15         7.8407   -1.8266    4.0457 C.ar      1 <0>        -0.0727
     23 F1          8.1660   -1.8363    6.3915 F         1 <0>        -0.1405
     24 N7          9.3998    0.6400    6.2864 N.pl3     1 <0>        -0.8687
     25 H1         -0.8933    1.9750    0.0252 H         1 <0>         0.1582
     26 H2          1.6703    2.7988    0.0008 H         1 <0>         0.1591
     27 H3         -0.8670   -0.6452    0.0072 H         1 <0>         0.2131
     28 H4          7.2366    2.5058   -1.4240 H         1 <0>         0.4203
     29 H5          5.7711    3.2012   -1.8618 H         1 <0>         0.4217
     30 H6          7.5325   -2.9473    1.6872 H         1 <0>         0.1140
     31 H7          8.1052   -1.5653    0.7227 H         1 <0>         0.1130
     32 H8          8.7209    0.5251    1.7908 H         1 <0>         0.1343
     33 H9          9.5531    1.6158    3.8339 H         1 <0>         0.1337
     34 H10         7.3576   -2.7909    4.1013 H         1 <0>         0.1402
     35 H11         9.8303    1.5077    6.2341 H         1 <0>         0.4048
     36 H12         9.2968    0.2007    7.1451 H         1 <0>         0.4045
@<TRIPOS>BOND
     1    1    5 2
     2    1    2 1
     3    1   25 1
     4    2    3 2
     5    2   26 1
     6    3    4 1
     7    3    6 1
     8    4    5 1
     9    5   27 1
    10    6   11 ar
    11    6    7 ar
    12    7   15 1
    13    7    8 ar
    14    8    9 ar
    15    8   13 1
    16    9   10 ar
    17   10   11 ar
    18   10   12 1
    19   12   28 1
    20   12   29 1
    21   13   14 1
    22   13   16 1
    23   14   15 2
    24   16   17 1
    25   16   30 1
    26   16   31 1
    27   17   22 ar
    28   17   18 ar
    29   18   19 ar
    30   18   32 1
    31   19   20 ar
    32   19   33 1
    33   20   21 ar
    34   20   24 1
    35   21   22 ar
    36   21   23 1
    37   22   34 1
    38   24   35 1
    39   24   36 1
@<TRIPOS>MOLECULE
CHEMBL476310
   28    30     0     0     0
SMALL
USER_CHARGES

@<TRIPOS>ATOM
      1 C1         -0.0162    1.3446    0.0094 C.2       1 <0>        -0.2154
      2 C2          1.3234    1.7758   -0.0010 C.2       1 <0>        -0.1583
      3 C3          2.0961    0.6543   -0.0144 C.2       1 <0>        -0.0098
      4 O1          1.2788   -0.4172   -0.0124 O.3       1 <0>        -0.1617
      5 C4          0.0021   -0.0041    0.0020 C.2       1 <0>        -0.0172
      6 C5          3.5696    0.6187   -0.0291 C.ar      1 <0>         0.1314
      7 C6          4.2960    1.3801   -0.9460 C.ar      1 <0>        -0.1993
      8 C7          5.6880    1.3203   -0.9284 C.ar      1 <0>         0.3047
      9 N1          6.3327    0.5505   -0.0535 N.ar      1 <0>        -0.5292
     10 C8          5.6918   -0.1889    0.8345 C.ar      1 <0>         0.4705
     11 C9          4.2869   -0.1843    0.8904 C.ar      1 <0>        -0.1436
     12 C10         3.5936   -0.9818    1.8568 C.1       1 <0>         0.2558
     13 N2          3.0436   -1.6144    2.6234 N.1       1 <0>        -0.4037
     14 N3          6.4105   -0.9714    1.7215 N.pl3     1 <0>        -0.8323
     15 C11         6.4604    2.1224   -1.8953 C.2       1 <0>        -0.1429
     16 C12         7.8196    2.2087   -2.0561 C.2       1 <0>        -0.0934
     17 C13         8.3182    3.0331   -3.0378 C.2       1 <0>        -0.1683
     18 C14         7.4526    3.7350   -3.8164 C.2       1 <0>        -0.1547
     19 S1          5.8691    3.2280   -3.1665 S.3       1 <0>         0.0880
     20 H1         -0.8933    1.9746    0.0252 H         1 <0>         0.1567
     21 H2          1.6714    2.7982    0.0011 H         1 <0>         0.1577
     22 H3         -0.8669   -0.6454    0.0074 H         1 <0>         0.2090
     23 H4          3.7851    2.0081   -1.6609 H         1 <0>         0.1500
     24 H5          7.3799   -0.9752    1.6895 H         1 <0>         0.4146
     25 H6          5.9447   -1.5160    2.3753 H         1 <0>         0.4129
     26 H7          8.4858    1.6406   -1.4238 H         1 <0>         0.1452
     27 H8          9.3840    3.1220   -3.1880 H         1 <0>         0.1409
     28 H9          7.6675    4.4200   -4.6233 H         1 <0>         0.1923
@<TRIPOS>BOND
     1    1    5 2
     2    1    2 1
     3    1   20 1
     4    2    3 2
     5    2   21 1
     6    3    4 1
     7    3    6 1
     8    4    5 1
     9    5   22 1
    10    6   11 ar
    11    6    7 ar
    12    7    8 ar
    13    7   23 1
    14    8    9 ar
    15    8   15 1
    16    9   10 ar
    17   10   11 ar
    18   10   14 1
    19   11   12 1
    20   12   13 3
    21   14   24 1
    22   14   25 1
    23   15   19 1
    24   15   16 2
    25   16   17 1
    26   16   26 1
    27   17   18 2
    28   17   27 1
    29   18   19 1
    30   18   28 1
@<TRIPOS>MOLECULE
CHEMBL476311
   28    30     0     0     0
SMALL
USER_CHARGES

@<TRIPOS>ATOM
      1 C1         -0.0162    1.3445    0.0094 C.2       1 <0>        -0.2231
      2 C2          1.3235    1.7757   -0.0010 C.2       1 <0>        -0.1311
      3 C3          2.0959    0.6545   -0.0144 C.2       1 <0>        -0.0026
      4 O1          1.2788   -0.4170   -0.0124 O.3       1 <0>        -0.1648
      5 C4          0.0021   -0.0041    0.0020 C.2       1 <0>        -0.0090
      6 C5          3.5702    0.6190   -0.0291 C.ar      1 <0>         0.2955
      7 C6          4.2257   -0.6106   -0.0477 C.ar      1 <0>        -0.1953
      8 C7          5.6208   -0.6389   -0.0621 C.ar      1 <0>         0.1389
      9 C8          6.3148    0.5955   -0.0570 C.ar      1 <0>        -0.1471
     10 C9          5.5738    1.7898   -0.0379 C.ar      1 <0>         0.4725
     11 N1          4.2526    1.7625   -0.0300 N.ar      1 <0>        -0.5291
     12 N2          6.2343    3.0062   -0.0322 N.pl3     1 <0>        -0.8325
     13 C10         7.7464    0.6265   -0.0707 C.1       1 <0>         0.2512
     14 N3          8.8821    0.6511   -0.0815 N.1       1 <0>        -0.3989
     15 C11         6.3521   -1.9186   -0.0814 C.2       1 <0>        -0.1516
     16 C12         6.1910   -3.0185    0.7223 C.2       1 <0>        -0.1132
     17 C13         6.9988   -4.1124    0.5152 C.2       1 <0>        -0.1633
     18 C14         7.9289   -4.0713   -0.4754 C.2       1 <0>        -0.1605
     19 S1          7.6728   -2.4435   -1.1621 S.3       1 <0>         0.0813
     20 H1         -0.8932    1.9746    0.0252 H         1 <0>         0.1559
     21 H2          1.6715    2.7981    0.0008 H         1 <0>         0.1600
     22 H3         -0.8669   -0.6454    0.0072 H         1 <0>         0.2114
     23 H4          3.6605   -1.5310   -0.0507 H         1 <0>         0.1530
     24 H5          7.2039    3.0317   -0.0414 H         1 <0>         0.4131
     25 H6          5.7275    3.8332   -0.0191 H         1 <0>         0.4146
     26 H7          5.4445   -3.0254    1.5028 H         1 <0>         0.1417
     27 H8          6.8957   -4.9928    1.1322 H         1 <0>         0.1416
     28 H9          8.6378   -4.8298   -0.7729 H         1 <0>         0.1914
@<TRIPOS>BOND
     1    1    5 2
     2    1    2 1
     3    1   20 1
     4    2    3 2
     5    2   21 1
     6    3    4 1
     7    3    6 1
     8    4    5 1
     9    5   22 1
    10    6   11 ar
    11    6    7 ar
    12    7    8 ar
    13    7   23 1
    14    8    9 ar
    15    8   15 1
    16    9   10 ar
    17    9   13 1
    18   10   11 ar
    19   10   12 1
    20   12   24 1
    21   12   25 1
    22   13   14 3
    23   15   19 1
    24   15   16 2
    25   16   17 1
    26   16   26 1
    27   17   18 2
    28   17   27 1
    29   18   19 1
    30   18   28 1
@<TRIPOS>MOLECULE
CHEMBL506101
   31    34     0     0     0
SMALL
USER_CHARGES

@<TRIPOS>ATOM
      1 C1         -0.0162    1.3451    0.0094 C.2       1 <0>        -0.2247
      2 C2          1.3225    1.7763   -0.0010 C.2       1 <0>        -0.1231
      3 C3          2.0959    0.6543   -0.0144 C.2       1 <0>        -0.0075
      4 O1          1.2782   -0.4173   -0.0124 O.3       1 <0>        -0.1489
      5 C4          0.0021   -0.0041    0.0020 C.2       1 <0>         0.0011
      6 C5          3.5677    0.6188   -0.0291 C.ar      1 <0>         0.4086
      7 C6          4.2734   -0.4010    0.6510 C.ar      1 <0>        -0.1551
      8 C7          5.6790   -0.3802    0.5989 C.ar      1 <0>         0.3623
      9 N1          6.2899    0.5856   -0.0804 N.ar      1 <0>        -0.5800
     10 C8          5.5905    1.5202   -0.7032 C.ar      1 <0>         0.6211
     11 N2          4.2647    1.5429   -0.6876 N.ar      1 <0>        -0.5505
     12 N3          6.2669    2.5076   -1.3991 N.pl3     1 <0>        -0.8035
     13 N4          6.0998   -1.4584    1.3276 N.pl3     1 <0>        -0.3798
     14 N5          4.9441   -2.0995    1.7988 N.2       1 <0>         0.0008
     15 N6          3.9043   -1.4608    1.3883 N.2       1 <0>        -0.1684
     16 C9          7.4865   -1.8648    1.5687 C.3       1 <0>         0.1933
     17 C10         7.9940   -1.2001    2.8224 C.2       1 <0>        -0.1613
     18 C11         8.6089    0.0363    2.7612 C.2       1 <0>        -0.1424
     19 C12         9.0541    0.6065    3.9075 C.2       1 <0>        -0.1734
     20 S1          8.6051   -0.6173    5.1273 S.3       1 <0>         0.0542
     21 C13         7.8494   -1.8034    4.0276 C.2       1 <0>        -0.1394
     22 H1         -0.8933    1.9750    0.0252 H         1 <0>         0.1585
     23 H2          1.6703    2.7988    0.0008 H         1 <0>         0.1592
     24 H3         -0.8670   -0.6452    0.0072 H         1 <0>         0.2133
     25 H4          7.2366    2.5058   -1.4240 H         1 <0>         0.4204
     26 H5          5.7711    3.2012   -1.8618 H         1 <0>         0.4220
     27 H6          7.5325   -2.9473    1.6872 H         1 <0>         0.1143
     28 H7          8.1052   -1.5653    0.7227 H         1 <0>         0.1109
     29 H8          8.7330    0.5404    1.8142 H         1 <0>         0.1388
     30 H9          9.5516    1.5549    4.0467 H         1 <0>         0.1878
     31 H10         7.3958   -2.7552    4.2617 H         1 <0>         0.1915
@<TRIPOS>BOND
     1    1    5 2
     2    1    2 1
     3    1   22 1
     4    2    3 2
     5    2   23 1
     6    3    4 1
     7    3    6 1
     8    4    5 1
     9    5   24 1
    10    6   11 ar
    11    6    7 ar
    12    7   15 1
    13    7    8 ar
    14    8    9 ar
    15    8   13 1
    16    9   10 ar
    17   10   11 ar
    18   10   12 1
    19   12   25 1
    20   12   26 1
    21   13   14 1
    22   13   16 1
    23   14   15 2
    24   16   17 1
    25   16   27 1
    26   16   28 1
    27   17   21 2
    28   17   18 1
    29   18   19 2
    30   18   29 1
    31   19   20 1
    32   19   30 1
    33   20   21 1
    34   21   31 1
@<TRIPOS>MOLECULE
CHEMBL372475
   38    41     0     0     0
SMALL
USER_CHARGES

@<TRIPOS>ATOM
      1 C1         -0.0162    1.3448    0.0094 C.2       1 <0>        -0.2232
      2 C2          1.3230    1.7760   -0.0010 C.2       1 <0>        -0.1378
      3 C3          2.0960    0.6543   -0.0144 C.2       1 <0>         0.0080
      4 O1          1.2786   -0.4173   -0.0124 O.3       1 <0>        -0.1484
      5 C4          0.0021   -0.0041    0.0020 C.2       1 <0>        -0.0097
      6 C5          3.5685    0.6188   -0.0294 C.ar      1 <0>         0.3653
      7 C6          4.2724   -0.3973    0.6484 C.ar      1 <0>        -0.0876
      8 C7          5.6778   -0.3798    0.5989 C.ar      1 <0>         0.3317
      9 N1          6.2899    0.5846   -0.0786 N.ar      1 <0>        -0.5732
     10 C8          5.5915    1.5208   -0.7017 C.ar      1 <0>         0.5983
     11 N2          4.2666    1.5439   -0.6890 N.ar      1 <0>        -0.5481
     12 N3          6.2701    2.5086   -1.3970 N.pl3     1 <0>        -0.8146
     13 N4          6.0951   -1.4634    1.3306 N.pl3     1 <0>        -0.4778
     14 C9          4.9797   -2.0966    1.7945 C.2       1 <0>         0.2632
     15 N5          3.9124   -1.4689    1.3926 N.2       1 <0>        -0.4470
     16 C10         7.4833   -1.8661    1.5691 C.3       1 <0>         0.1548
     17 C11         8.0304   -1.1076    2.7508 C.ar      1 <0>        -0.1245
     18 C12         8.7442    0.0594    2.5530 C.ar      1 <0>        -0.0605
     19 C13         9.2461    0.7553    3.6367 C.ar      1 <0>        -0.0812
     20 C14         9.0348    0.2850    4.9197 C.ar      1 <0>        -0.1434
     21 C15         8.3212   -0.8811    5.1199 C.ar      1 <0>        -0.1077
     22 C16         7.8134   -1.5764    4.0352 C.ar      1 <0>         0.1219
     23 F1          7.1115   -2.7142    4.2300 F         1 <0>        -0.1242
     24 C17         9.5835    1.0444    6.1001 C.3       1 <0>         0.5102
     25 F2          8.6356    1.9761    6.5367 F         1 <0>        -0.1710
     26 F3          9.8707    0.1503    7.1371 F         1 <0>        -0.1723
     27 F4         10.7536    1.7117    5.7223 F         1 <0>        -0.1713
     28 H1         -0.8933    1.9747    0.0252 H         1 <0>         0.1557
     29 H2          1.6709    2.7985    0.0008 H         1 <0>         0.1561
     30 H3         -0.8670   -0.6453    0.0072 H         1 <0>         0.2104
     31 H4          7.2398    2.5059   -1.4210 H         1 <0>         0.4166
     32 H5          5.7755    3.2029   -1.8598 H         1 <0>         0.4191
     33 H6          4.9817   -2.9878    2.4046 H         1 <0>         0.2251
     34 H7          7.5211   -2.9358    1.7749 H         1 <0>         0.1169
     35 H8          8.0827   -1.6445    0.6861 H         1 <0>         0.1153
     36 H9          8.9101    0.4275    1.5513 H         1 <0>         0.1524
     37 H10         9.8039    1.6669    3.4812 H         1 <0>         0.1482
     38 H11         8.1566   -1.2484    6.1221 H         1 <0>         0.1541
@<TRIPOS>BOND
     1    1    5 2
     2    1    2 1
     3    1   28 1
     4    2    3 2
     5    2   29 1
     6    3    4 1
     7    3    6 1
     8    4    5 1
     9    5   30 1
    10    6   11 ar
    11    6    7 ar
    12    7   15 1
    13    7    8 ar
    14    8    9 ar
    15    8   13 1
    16    9   10 ar
    17   10   11 ar
    18   10   12 1
    19   12   31 1
    20   12   32 1
    21   13   14 1
    22   13   16 1
    23   14   15 2
    24   14   33 1
    25   16   17 1
    26   16   34 1
    27   16   35 1
    28   17   22 ar
    29   17   18 ar
    30   18   19 ar
    31   18   36 1
    32   19   20 ar
    33   19   37 1
    34   20   21 ar
    35   20   24 1
    36   21   22 ar
    37   21   38 1
    38   22   23 1
    39   24   25 1
    40   24   26 1
    41   24   27 1
@<TRIPOS>MOLECULE
CHEMBL248298
   34    37     0     0     0
SMALL
USER_CHARGES

@<TRIPOS>ATOM
      1 C1         -0.0187    1.5258    0.0104 C.3       1 <0>        -0.1497
      2 C2          0.0021   -0.0041    0.0020 C.3       1 <0>        -0.1406
      3 C3          0.7182   -0.4975   -1.2568 C.3       1 <0>         0.1078
      4 N1          0.7381   -1.9623   -1.2648 N.pl3     1 <0>        -0.4511
      5 C4          1.7468   -2.7577   -0.8089 C.2       1 <0>         0.2297
      6 N2          1.4277   -4.0101   -0.9708 N.2       1 <0>        -0.4338
      7 C5          0.2029   -4.0918   -1.5367 C.2       1 <0>        -0.0264
      8 C6         -0.2579   -2.7852   -1.7273 C.2       1 <0>         0.2878
      9 N3         -1.4621   -2.5770   -2.2725 N.2       1 <0>        -0.5437
     10 C7         -2.2436   -3.5637   -2.6394 C.2       1 <0>         0.6695
     11 N4         -1.8853   -4.8710   -2.4918 N.pl3     1 <0>        -0.3629
     12 C8         -0.6662   -5.1904   -1.9510 C.2       1 <0>         0.3979
     13 N5         -0.5690   -6.5051   -1.9218 N.2       1 <0>        -0.5002
     14 C9         -1.6767   -7.0491   -2.4396 C.2       1 <0>         0.3450
     15 N6         -2.5111   -6.0880   -2.7906 N.2       1 <0>        -0.2955
     16 C10        -1.9348   -8.4980   -2.5761 C.2       1 <0>         0.0439
     17 C11        -3.0526   -9.0628   -3.1048 C.2       1 <0>        -0.1378
     18 C12        -2.8733  -10.4587   -3.0361 C.2       1 <0>        -0.2201
     19 C13        -1.6675  -10.6747   -2.4747 C.2       1 <0>        -0.0045
     20 O1         -1.1009   -9.4880   -2.2034 O.3       1 <0>        -0.1516
     21 N7         -3.4695   -3.2695   -3.1929 N.pl3     1 <0>        -0.8070
     22 H1          1.0039    1.9031    0.0027 H         1 <0>         0.0599
     23 H2         -0.5459    1.8868   -0.8726 H         1 <0>         0.0595
     24 H3         -0.5289    1.8773    0.9072 H         1 <0>         0.0635
     25 H4          0.5293   -0.3651    0.8851 H         1 <0>         0.0717
     26 H5         -1.0205   -0.3814    0.0098 H         1 <0>         0.0714
     27 H6          0.1910   -0.1364   -2.1398 H         1 <0>         0.0977
     28 H7          1.7408   -0.1202   -1.2645 H         1 <0>         0.1037
     29 H8          2.6717   -2.4028   -0.3787 H         1 <0>         0.2281
     30 H9         -3.9121   -8.5422   -3.5006 H         1 <0>         0.1602
     31 H10        -3.5707  -11.2129   -3.3697 H         1 <0>         0.1594
     32 H11        -1.2279  -11.6416   -2.2796 H         1 <0>         0.2140
     33 H12        -3.7415   -2.3452   -3.3055 H         1 <0>         0.4288
     34 H13        -4.0610   -3.9864   -3.4703 H         1 <0>         0.4253
@<TRIPOS>BOND
     1    1    2 1
     2    1   22 1
     3    1   23 1
     4    1   24 1
     5    2    3 1
     6    2   25 1
     7    2   26 1
     8    3    4 1
     9    3   27 1
    10    3   28 1
    11    4    8 1
    12    4    5 1
    13    5    6 2
    14    5   29 1
    15    6    7 1
    16    7   12 1
    17    7    8 2
    18    8    9 1
    19    9   10 2
    20   10   11 1
    21   10   21 1
    22   11   15 1
    23   11   12 1
    24   12   13 2
    25   13   14 1
    26   14   15 2
    27   14   16 1
    28   16   20 1
    29   16   17 2
    30   17   18 1
    31   17   30 1
    32   18   19 2
    33   18   31 1
    34   19   20 1
    35   19   32 1
    36   21   33 1
    37   21   34 1
@<TRIPOS>MOLECULE
CHEMBL462501
   33    36     0     0     0
SMALL
USER_CHARGES

@<TRIPOS>ATOM
      1 C1         -0.0167    1.3821    0.0096 C.ar      1 <0>        -0.0747
      2 C2          1.1937    2.0586    0.0017 C.ar      1 <0>        -0.1631
      3 C3          2.3701    1.3338   -0.0134 C.ar      1 <0>         0.1020
      4 N1          2.3500    0.0151   -0.0207 N.ar      1 <0>        -0.4620
      5 C4          1.2181   -0.6611   -0.0136 C.ar      1 <0>         0.0930
      6 C5          0.0021   -0.0041    0.0020 C.ar      1 <0>        -0.1481
      7 C6          1.2505   -2.1677   -0.0230 C.3       1 <0>         0.1910
      8 N2          2.0418   -2.6320   -1.1651 N.pl3     1 <0>        -0.3770
      9 C7          1.5800   -2.9014   -2.4240 C.ar      1 <0>         0.3583
     10 C8          2.7003   -3.3134   -3.1688 C.ar      1 <0>        -0.1525
     11 C9          2.5058   -3.6588   -4.5261 C.ar      1 <0>         0.4068
     12 N3          1.2765   -3.5780   -5.0324 N.ar      1 <0>        -0.5507
     13 C10         0.2528   -3.1835   -4.2878 C.ar      1 <0>         0.6199
     14 N4          0.3900   -2.8516   -3.0141 N.ar      1 <0>        -0.5810
     15 N5         -1.0046   -3.1170   -4.8632 N.pl3     1 <0>        -0.8041
     16 C11         3.6365   -4.0975   -5.3610 C.2       1 <0>        -0.0066
     17 C12         3.5838   -5.0288   -6.3544 C.2       1 <0>        -0.1236
     18 C13         4.8839   -5.1333   -6.8807 C.2       1 <0>        -0.2249
     19 C14         5.6605   -4.2711   -6.1920 C.2       1 <0>         0.0008
     20 O1          4.9031   -3.6437   -5.2798 O.3       1 <0>        -0.1487
     21 N6          3.7694   -3.2795   -2.3570 N.2       1 <0>        -0.1726
     22 N7          3.4225   -2.8813   -1.1829 N.2       1 <0>         0.0234
     23 H1         -0.9518    1.9222    0.0259 H         1 <0>         0.1396
     24 H2          1.2167    3.1384    0.0069 H         1 <0>         0.1391
     25 H3          3.3170    1.8532   -0.0197 H         1 <0>         0.1599
     26 H4         -0.9217   -0.5635    0.0082 H         1 <0>         0.1400
     27 H5          1.7018   -2.5272    0.9018 H         1 <0>         0.1235
     28 H6          0.2340   -2.5525   -0.1048 H         1 <0>         0.1198
     29 H7         -1.1247   -3.3567   -5.7954 H         1 <0>         0.4218
     30 H8         -1.7656   -2.8307   -4.3341 H         1 <0>         0.4201
     31 H9          2.7123   -5.5799   -6.6755 H         1 <0>         0.1593
     32 H10         5.2009   -5.7814   -7.6843 H         1 <0>         0.1583
     33 H11         6.7163   -4.1095   -6.3520 H         1 <0>         0.2131
@<TRIPOS>BOND
     1    1    6 ar
     2    1    2 ar
     3    1   23 1
     4    2    3 ar
     5    2   24 1
     6    3    4 ar
     7    3   25 1
     8    4    5 ar
     9    5    6 ar
    10    5    7 1
    11    6   26 1
    12    7    8 1
    13    7   27 1
    14    7   28 1
    15    8   22 1
    16    8    9 1
    17    9   14 ar
    18    9   10 ar
    19   10   11 ar
    20   10   21 1
    21   11   12 ar
    22   11   16 1
    23   12   13 ar
    24   13   14 ar
    25   13   15 1
    26   15   29 1
    27   15   30 1
    28   16   20 1
    29   16   17 2
    30   17   18 1
    31   17   31 1
    32   18   19 2
    33   18   32 1
    34   19   20 1
    35   19   33 1
    36   21   22 2
@<TRIPOS>MOLECULE
CHEMBL321505
   37    39     0     0     0
SMALL
USER_CHARGES

@<TRIPOS>ATOM
      1 C1         -0.0127    1.0858    0.0080 C.3       1 <0>         0.0885
      2 N1         -0.7213    1.5711   -1.1789 N.am      1 <0>        -0.5104
      3 C2         -2.0896    1.7829   -1.1291 C.2       1 <0>         0.3236
      4 C3         -2.7385    2.2438   -2.2678 C.2       1 <0>        -0.1539
      5 C4         -1.9871    2.4823   -3.4387 C.2       1 <0>         0.5937
      6 O1         -2.5331    2.8869   -4.4494 O.2       1 <0>        -0.5126
      7 N2         -0.6567    2.2572   -3.4249 N.am      1 <0>        -0.5513
      8 C5         -0.0409    1.8160   -2.3146 C.2       1 <0>         0.7071
      9 O2          1.1605    1.6290   -2.3377 O.2       1 <0>        -0.5309
     10 C6          0.1291    2.5026   -4.6367 C.3       1 <0>         0.0833
     11 N3         -4.0723    2.3610   -1.9316 N.pl3     1 <0>        -0.5124
     12 C7         -4.1887    1.9809   -0.6443 C.2       1 <0>         0.3071
     13 N4         -3.0147    1.6409   -0.1765 N.2       1 <0>        -0.4918
     14 H1         -4.7896    2.6601   -2.5121 H         1 <0>         0.4353
     15 C8         -5.4760    1.9518    0.1386 C.3       1 <0>        -0.0100
     16 C9         -6.6270    1.5530   -0.7871 C.3       1 <0>        -0.1220
     17 C10        -7.9340    1.5234    0.0077 C.3       1 <0>        -0.1171
     18 C11        -8.2069    2.9107    0.5923 C.3       1 <0>        -0.1249
     19 C12        -7.0559    3.3096    1.5180 C.3       1 <0>        -0.1186
     20 C13        -5.7490    3.3391    0.7232 C.3       1 <0>        -0.1124
     21 H2          0.0021   -0.0041    0.0020 H         1 <0>         0.0740
     22 H3          1.0099    1.4631    0.0003 H         1 <0>         0.0942
     23 H4         -0.5229    1.4373    0.9048 H         1 <0>         0.0923
     24 H5          0.4850    3.5329   -4.6365 H         1 <0>         0.0771
     25 H6          0.9816    1.8238   -4.6606 H         1 <0>         0.0971
     26 H7         -0.4945    2.3338   -5.5146 H         1 <0>         0.0952
     27 H8         -5.3927    1.2265    0.9480 H         1 <0>         0.1160
     28 H9         -6.7103    2.2783   -1.5965 H         1 <0>         0.0639
     29 H10        -6.4326    0.5646   -1.2036 H         1 <0>         0.0727
     30 H11        -8.7540    1.2393   -0.6518 H         1 <0>         0.0696
     31 H12        -7.8507    0.7981    0.8171 H         1 <0>         0.0694
     32 H13        -8.2903    3.6361   -0.2171 H         1 <0>         0.0632
     33 H14        -9.1381    2.8897    1.1585 H         1 <0>         0.0671
     34 H15        -7.2504    4.2979    1.9345 H         1 <0>         0.0694
     35 H16        -6.9726    2.5842    2.3274 H         1 <0>         0.0688
     36 H17        -4.9290    3.6233    1.3827 H         1 <0>         0.0748
     37 H18        -5.8323    4.0645   -0.0862 H         1 <0>         0.0650
@<TRIPOS>BOND
     1    1   21 1
     2    1   22 1
     3    1   23 1
     4    1    2 1
     5    2    3 1
     6    2    8 am
     7    3   13 1
     8    3    4 2
     9    4    5 1
    10    4   11 1
    11    5    7 am
    12    5    6 2
    13    7    8 am
    14    7   10 1
    15    8    9 2
    16   10   24 1
    17   10   25 1
    18   10   26 1
    19   11   14 1
    20   11   12 1
    21   12   15 1
    22   12   13 2
    23   15   20 1
    24   15   16 1
    25   15   27 1
    26   16   17 1
    27   16   28 1
    28   16   29 1
    29   17   18 1
    30   17   30 1
    31   17   31 1
    32   18   19 1
    33   18   32 1
    34   18   33 1
    35   19   20 1
    36   19   34 1
    37   19   35 1
    38   20   36 1
    39   20   37 1
@<TRIPOS>MOLECULE
CHEMBL272679
   59    62     0     0     0
SMALL
USER_CHARGES

@<TRIPOS>ATOM
      1 C1         -0.0174    1.5029    0.0163 C.3       1 <0>        -0.0826
      2 C2          0.0028   -0.0040    0.0067 C.2       1 <0>         0.0295
      3 C3         -1.0824   -0.8047    0.0055 C.2       1 <0>        -0.2284
      4 C4         -0.6156   -2.1325   -0.0046 C.2       1 <0>        -0.1120
      5 C5          0.7438   -2.0698   -0.0091 C.2       1 <0>         0.0079
      6 O1          1.1033   -0.7711   -0.0079 O.3       1 <0>        -0.1501
      7 C6          1.6639   -3.2233   -0.0197 C.ar      1 <0>         0.4621
      8 N1          1.1612   -4.4528   -0.0311 N.ar      1 <0>        -0.5071
      9 C7          1.9607   -5.5134   -0.0409 C.ar      1 <0>         0.4307
     10 C8          3.3411   -5.3227   -0.0390 C.ar      1 <0>        -0.2601
     11 C9          3.8312   -4.0210   -0.0269 C.ar      1 <0>         0.4582
     12 N2          2.9741   -3.0063   -0.0230 N.ar      1 <0>        -0.5417
     13 N3          5.2072   -3.7839   -0.0245 N.pl3     1 <0>        -0.3370
     14 C10         5.8270   -2.6608   -0.4732 C.2       1 <0>         0.1161
     15 C11         7.1571   -2.8288   -0.2951 C.2       1 <0>        -0.2569
     16 C12         7.3603   -4.0894    0.2785 C.2       1 <0>         0.1075
     17 N4          6.1949   -4.6588    0.4463 N.2       1 <0>        -0.2875
     18 C13         8.6944   -4.6863    0.6461 C.3       1 <0>        -0.0780
     19 C14         5.1541   -1.4481   -1.0627 C.3       1 <0>        -0.0892
     20 N5          1.4270   -6.7978   -0.0524 N.am      1 <0>        -0.6514
     21 C15         0.0948   -6.9750    0.0491 C.2       1 <0>         0.5067
     22 O2         -0.6457   -6.0146    0.0576 O.2       1 <0>        -0.4646
     23 C16        -0.4747   -8.3664    0.1520 C.3       1 <0>        -0.1381
     24 C17        -1.9991   -8.2873    0.2555 C.3       1 <0>        -0.0855
     25 C18        -2.3884   -7.6021    1.5686 C.3       1 <0>        -0.1511
     26 C19        -3.9127   -7.5975    1.7028 C.3       1 <0>        -0.0043
     27 N6         -4.4117   -8.9778    1.7027 N.4       1 <0>        -0.3855
     28 C20        -4.1048   -9.6183    0.4181 C.3       1 <0>        -0.0054
     29 C21        -2.5879   -9.7008    0.2345 C.3       1 <0>        -0.1436
     30 C22        -5.8661   -8.9712    1.9097 C.3       1 <0>        -0.0474
     31 H1          1.0052    1.8801    0.0100 H         1 <0>         0.0814
     32 H2         -0.5437    1.8648   -0.8670 H         1 <0>         0.0933
     33 H3         -0.5285    1.8536    0.9129 H         1 <0>         0.0929
     34 H4         -2.1146   -0.4871    0.0115 H         1 <0>         0.1570
     35 H5         -1.2194   -3.0278   -0.0078 H         1 <0>         0.1625
     36 H6          4.0152   -6.1665   -0.0464 H         1 <0>         0.1621
     37 H7          7.9270   -2.1159   -0.5509 H         1 <0>         0.1617
     38 H8          8.9433   -4.4154    1.6721 H         1 <0>         0.0852
     39 H9          8.6432   -5.7716    0.5591 H         1 <0>         0.0778
     40 H10         9.4615   -4.3036   -0.0271 H         1 <0>         0.0862
     41 H11         4.9184   -0.7408   -0.2675 H         1 <0>         0.0893
     42 H12         5.8224   -0.9758   -1.7828 H         1 <0>         0.0856
     43 H13         4.2348   -1.7505   -1.5642 H         1 <0>         0.0772
     44 H14         2.0136   -7.5661   -0.1335 H         1 <0>         0.4267
     45 H15        -0.1999   -8.9380   -0.7345 H         1 <0>         0.1110
     46 H16        -0.0753   -8.8577    1.0393 H         1 <0>         0.1065
     47 H17        -2.3923   -7.7161   -0.5855 H         1 <0>         0.1008
     48 H18        -1.9510   -8.1454    2.4062 H         1 <0>         0.0842
     49 H19        -2.0200   -6.5763    1.5670 H         1 <0>         0.1292
     50 H20        -4.1933   -7.1102    2.6365 H         1 <0>         0.1305
     51 H21        -4.3491   -7.0538    0.8648 H         1 <0>         0.1298
     52 H22        -4.5273  -10.6231    0.4035 H         1 <0>         0.1317
     53 H23        -4.5371   -9.0316   -0.3924 H         1 <0>         0.1292
     54 H24        -2.3621  -10.1750   -0.7206 H         1 <0>         0.1143
     55 H25        -2.1546  -10.2876    1.0445 H         1 <0>         0.0906
     56 H26        -6.3449   -8.4111    1.1065 H         1 <0>         0.1216
     57 H27        -6.2377   -9.9959    1.9098 H         1 <0>         0.1234
     58 H28        -6.0947   -8.5017    2.8665 H         1 <0>         0.1236
     59 H29        -3.9702   -9.4941    2.4487 H         1 <0>         0.4235
@<TRIPOS>BOND
     1    1    2 1
     2    1   31 1
     3    1   32 1
     4    1   33 1
     5    2    6 1
     6    2    3 2
     7    3    4 1
     8    3   34 1
     9    4    5 2
    10    4   35 1
    11    5    6 1
    12    5    7 1
    13    7   12 ar
    14    7    8 ar
    15    8    9 ar
    16    9   10 ar
    17    9   20 1
    18   10   11 ar
    19   10   36 1
    20   11   12 ar
    21   11   13 1
    22   13   17 1
    23   13   14 1
    24   14   15 2
    25   14   19 1
    26   15   16 1
    27   15   37 1
    28   16   17 2
    29   16   18 1
    30   18   38 1
    31   18   39 1
    32   18   40 1
    33   19   41 1
    34   19   42 1
    35   19   43 1
    36   20   21 am
    37   20   44 1
    38   21   22 2
    39   21   23 1
    40   23   24 1
    41   23   45 1
    42   23   46 1
    43   24   29 1
    44   24   25 1
    45   24   47 1
    46   25   26 1
    47   25   48 1
    48   25   49 1
    49   26   27 1
    50   26   50 1
    51   26   51 1
    52   27   28 1
    53   27   30 1
    54   27   59 1
    55   28   29 1
    56   28   52 1
    57   28   53 1
    58   29   54 1
    59   29   55 1
    60   30   56 1
    61   30   57 1
    62   30   58 1
@<TRIPOS>MOLECULE
CHEMBL1171718
   51    53     0     0     0
SMALL
USER_CHARGES

@<TRIPOS>ATOM
      1 C1         -2.7791    1.3649    0.6158 C.3       1 <0>        -0.1462
      2 C2         -2.8188   -0.0795    0.1126 C.3       1 <0>        -0.1159
      3 C3         -3.5410   -0.1303   -1.2353 C.3       1 <0>        -0.1541
      4 C4         -1.3901   -0.6009   -0.0543 C.3       1 <0>         0.1077
      5 N1         -1.4269   -2.0241   -0.3998 N.am      1 <0>        -0.5719
      6 C5         -1.4643   -2.9911    0.6149 C.ar      1 <0>         0.1553
      7 C6         -2.6779   -3.3789    1.1662 C.ar      1 <0>        -0.0435
      8 C7         -2.6920   -4.3372    2.1690 C.ar      1 <0>        -0.2021
      9 C8         -1.5313   -4.9115    2.6300 C.ar      1 <0>         0.1944
     10 C9         -0.2733   -4.5396    2.0901 C.ar      1 <0>         0.0799
     11 C10        -0.2965   -3.5672    1.0679 C.ar      1 <0>        -0.1056
     12 S1          1.4263   -3.3953    0.6690 S.3       1 <0>         0.0281
     13 C11         2.0483   -4.5930    1.8407 C.2       1 <0>         0.3576
     14 N2          0.9496   -5.0045    2.4291 N.2       1 <0>        -0.4792
     15 N3          3.3575   -4.9794    2.0765 N.am      1 <0>        -0.6148
     16 C12         3.6272   -5.9095    3.0139 C.2       1 <0>         0.5569
     17 O1          2.7215   -6.4094    3.6524 O.2       1 <0>        -0.4548
     18 C13         5.0228   -6.3214    3.2653 C.ar      1 <0>        -0.1467
     19 C14         6.0658   -5.7445    2.5371 C.ar      1 <0>        -0.0561
     20 C15         7.3666   -6.1327    2.7758 C.ar      1 <0>        -0.1585
     21 C16         7.6407   -7.0943    3.7365 C.ar      1 <0>         0.1330
     22 C17         6.6091   -7.6703    4.4623 C.ar      1 <0>        -0.1584
     23 C18         5.3052   -7.2851    4.2361 C.ar      1 <0>        -0.0225
     24 F1          8.9174   -7.4718    3.9658 F         1 <0>        -0.1298
     25 O2         -1.5897   -5.8470    3.6157 O.3       1 <0>        -0.2916
     26 C19        -2.8852   -6.1790    4.1191 C.3       1 <0>         0.0200
     27 C20        -1.4249   -2.4039   -1.6929 C.2       1 <0>         0.5163
     28 O3         -1.5447   -3.5762   -1.9809 O.2       1 <0>        -0.5257
     29 C21        -1.2738   -1.3723   -2.7810 C.3       1 <0>        -0.1798
     30 H1         -3.7969    1.7363    0.7347 H         1 <0>         0.0607
     31 H2         -2.2646    1.4011    1.5760 H         1 <0>         0.0574
     32 H3         -2.2474    1.9862   -0.1049 H         1 <0>         0.0582
     33 H4         -3.3505   -0.7008    0.8333 H         1 <0>         0.0764
     34 H5         -3.5061   -1.1464   -1.6282 H         1 <0>         0.0544
     35 H6         -4.5797    0.1724   -1.1026 H         1 <0>         0.0590
     36 H7         -3.0518    0.5470   -1.9354 H         1 <0>         0.0598
     37 H8         -0.8917   -0.0467   -0.8497 H         1 <0>         0.0940
     38 H9         -0.8434   -0.4676    0.8791 H         1 <0>         0.0823
     39 H10        -3.6010   -2.9392    0.8184 H         1 <0>         0.1432
     40 H11        -3.6364   -4.6386    2.5976 H         1 <0>         0.1464
     41 H12         4.0801   -4.5805    1.5671 H         1 <0>         0.4272
     42 H13         5.8534   -4.9959    1.7882 H         1 <0>         0.1369
     43 H14         8.1739   -5.6873    2.2134 H         1 <0>         0.1470
     44 H15         6.8281   -8.4189    5.2093 H         1 <0>         0.1480
     45 H16         4.5029   -7.7308    4.8053 H         1 <0>         0.1510
     46 H17        -2.7894   -6.9350    4.8984 H         1 <0>         0.1053
     47 H18        -3.3534   -5.2865    4.5342 H         1 <0>         0.0596
     48 H19        -3.5011   -6.5687    3.3085 H         1 <0>         0.0598
     49 H20        -1.0946   -0.3951   -2.3328 H         1 <0>         0.0860
     50 H21        -0.4320   -1.6389   -3.4200 H         1 <0>         0.0960
     51 H22        -2.1856   -1.3369   -3.3773 H         1 <0>         0.0994
@<TRIPOS>BOND
     1    1    2 1
     2    1   30 1
     3    1   31 1
     4    1   32 1
     5    2    3 1
     6    2    4 1
     7    2   33 1
     8    3   34 1
     9    3   35 1
    10    3   36 1
    11    4    5 1
    12    4   37 1
    13    4   38 1
    14    5    6 1
    15    5   27 am
    16    6   11 ar
    17    6    7 ar
    18    7    8 ar
    19    7   39 1
    20    8    9 ar
    21    8   40 1
    22    9   10 ar
    23    9   25 1
    24   10   14 1
    25   10   11 ar
    26   11   12 1
    27   12   13 1
    28   13   14 2
    29   13   15 1
    30   15   16 am
    31   15   41 1
    32   16   17 2
    33   16   18 1
    34   18   23 ar
    35   18   19 ar
    36   19   20 ar
    37   19   42 1
    38   20   21 ar
    39   20   43 1
    40   21   22 ar
    41   21   24 1
    42   22   23 ar
    43   22   44 1
    44   23   45 1
    45   25   26 1
    46   26   46 1
    47   26   47 1
    48   26   48 1
    49   27   28 2
    50   27   29 1
    51   29   49 1
    52   29   50 1
    53   29   51 1
@<TRIPOS>MOLECULE
CHEMBL460799
   31    34     0     0     0
SMALL
USER_CHARGES

@<TRIPOS>ATOM
      1 C1         -0.0162    1.3451    0.0094 C.2       1 <0>        -0.2248
      2 C2          1.3225    1.7763   -0.0010 C.2       1 <0>        -0.1225
      3 C3          2.0959    0.6543   -0.0144 C.2       1 <0>        -0.0079
      4 O1          1.2782   -0.4173   -0.0124 O.3       1 <0>        -0.1489
      5 C4          0.0021   -0.0041    0.0020 C.2       1 <0>         0.0013
      6 C5          3.5677    0.6188   -0.0291 C.ar      1 <0>         0.4092
      7 C6          4.2734   -0.4010    0.6510 C.ar      1 <0>        -0.1550
      8 C7          5.6790   -0.3802    0.5989 C.ar      1 <0>         0.3634
      9 N1          6.2899    0.5856   -0.0804 N.ar      1 <0>        -0.5785
     10 C8          5.5905    1.5202   -0.7032 C.ar      1 <0>         0.6227
     11 N2          4.2647    1.5429   -0.6876 N.ar      1 <0>        -0.5498
     12 N3          6.2669    2.5076   -1.3991 N.pl3     1 <0>        -0.8023
     13 N4          6.0998   -1.4584    1.3276 N.pl3     1 <0>        -0.3851
     14 N5          4.9441   -2.0995    1.7988 N.2       1 <0>         0.0039
     15 N6          3.9043   -1.4608    1.3883 N.2       1 <0>        -0.1657
     16 C9          7.4865   -1.8648    1.5687 C.3       1 <0>         0.2255
     17 C10         7.9940   -1.2001    2.8224 C.2       1 <0>        -0.1953
     18 C11         7.9476   -1.6437    4.1024 C.2       1 <0>        -0.1165
     19 C12         8.4830   -0.8564    5.1045 C.2       1 <0>        -0.1659
     20 C13         9.0385    0.3360    4.7776 C.2       1 <0>        -0.1613
     21 S1          8.8194    0.3722    3.0062 S.3       1 <0>         0.0676
     22 H1         -0.8933    1.9750    0.0252 H         1 <0>         0.1585
     23 H2          1.6703    2.7988    0.0008 H         1 <0>         0.1594
     24 H3         -0.8670   -0.6452    0.0072 H         1 <0>         0.2134
     25 H4          7.2366    2.5058   -1.4240 H         1 <0>         0.4210
     26 H5          5.7711    3.2012   -1.8618 H         1 <0>         0.4222
     27 H6          7.5325   -2.9473    1.6872 H         1 <0>         0.1280
     28 H7          8.1052   -1.5653    0.7227 H         1 <0>         0.1178
     29 H8          7.4988   -2.5979    4.3358 H         1 <0>         0.1387
     30 H9          8.4586   -1.1863    6.1326 H         1 <0>         0.1382
     31 H10         9.4982    1.0714    5.4212 H         1 <0>         0.1888
@<TRIPOS>BOND
     1    1    5 2
     2    1    2 1
     3    1   22 1
     4    2    3 2
     5    2   23 1
     6    3    4 1
     7    3    6 1
     8    4    5 1
     9    5   24 1
    10    6   11 ar
    11    6    7 ar
    12    7   15 1
    13    7    8 ar
    14    8    9 ar
    15    8   13 1
    16    9   10 ar
    17   10   11 ar
    18   10   12 1
    19   12   25 1
    20   12   26 1
    21   13   14 1
    22   13   16 1
    23   14   15 2
    24   16   17 1
    25   16   27 1
    26   16   28 1
    27   17   21 1
    28   17   18 2
    29   18   19 1
    30   18   29 1
    31   19   20 2
    32   19   30 1
    33   20   21 1
    34   20   31 1
@<TRIPOS>MOLECULE
CHEMBL1222303
   37    40     0     0     0
SMALL
USER_CHARGES

@<TRIPOS>ATOM
      1 C1         -0.0017    1.4924    0.1950 C.3       1 <0>        -0.0743
      2 C2          0.0063   -0.0067    0.0410 C.2       1 <0>         0.2972
      3 N1         -1.0332   -0.7851    0.1299 N.2       1 <0>        -0.5415
      4 C3         -0.6667   -2.0679   -0.0606 C.2       1 <0>         0.3509
      5 N2          0.6295   -2.1044   -0.2745 N.2       1 <0>        -0.3163
      6 O1          1.0834   -0.7604   -0.2162 O.3       1 <0>        -0.1048
      7 C4         -1.5682   -3.2343   -0.0332 C.2       1 <0>        -0.2332
      8 C5         -1.2679   -4.5922   -0.1054 C.2       1 <0>         0.2023
      9 N3         -2.3006   -5.4174   -0.0549 N.2       1 <0>        -0.5456
     10 C6         -3.5312   -4.9687    0.0569 C.2       1 <0>         0.2497
     11 S1         -3.3468   -3.2974    0.1096 S.3       1 <0>         0.3333
     12 N4         -4.7067   -5.7022    0.1219 N.am      1 <0>        -0.6045
     13 C7         -5.8908   -5.0689    0.2367 C.2       1 <0>         0.5455
     14 O2         -5.9285   -3.8576    0.2832 O.2       1 <0>        -0.4940
     15 C8         -7.1679   -5.8658    0.3073 C.3       1 <0>        -0.1956
     16 C9         -8.1242   -5.7746   -0.8835 C.3       1 <0>        -0.1464
     17 C10        -8.4793   -5.0886    0.4372 C.3       1 <0>        -0.1391
     18 C11         0.1241   -5.0830   -0.2317 C.ar      1 <0>        -0.0378
     19 C12         1.1268   -4.5631    0.5865 C.ar      1 <0>        -0.0654
     20 C13         2.4213   -5.0247    0.4645 C.ar      1 <0>        -0.1176
     21 C14         2.7257   -6.0008   -0.4675 C.ar      1 <0>        -0.1033
     22 C15         1.7355   -6.5203   -1.2820 C.ar      1 <0>        -0.1265
     23 C16         0.4361   -6.0710   -1.1654 C.ar      1 <0>        -0.0786
     24 H1          1.0101    1.8764    0.0652 H         1 <0>         0.1001
     25 H2         -0.6564    1.9315   -0.5577 H         1 <0>         0.1104
     26 H3         -0.3647    1.7535    1.1891 H         1 <0>         0.1104
     27 H4         -4.6765   -6.6711    0.0847 H         1 <0>         0.4296
     28 H5         -7.0968   -6.8229    0.8240 H         1 <0>         0.1363
     29 H6         -7.8297   -5.1382   -1.7180 H         1 <0>         0.1039
     30 H7         -8.6824   -6.6720   -1.1505 H         1 <0>         0.1128
     31 H8         -9.2712   -5.5346    1.0390 H         1 <0>         0.1115
     32 H9         -8.4184   -4.0008    0.4716 H         1 <0>         0.1130
     33 H10         0.8905   -3.8006    1.3139 H         1 <0>         0.1163
     34 H11         3.1987   -4.6229    1.0975 H         1 <0>         0.1258
     35 H12         3.7406   -6.3584   -0.5598 H         1 <0>         0.1249
     36 H13         1.9792   -7.2822   -2.0077 H         1 <0>         0.1262
     37 H14        -0.3369   -6.4803   -1.7990 H         1 <0>         0.1243
@<TRIPOS>BOND
     1    1    2 1
     2    1   24 1
     3    1   25 1
     4    1   26 1
     5    2    6 1
     6    2    3 2
     7    3    4 1
     8    4    5 2
     9    4    7 1
    10    5    6 1
    11    7   11 1
    12    7    8 2
    13    8    9 1
    14    8   18 1
    15    9   10 2
    16   10   11 1
    17   10   12 1
    18   12   13 am
    19   12   27 1
    20   13   14 2
    21   13   15 1
    22   15   17 1
    23   15   16 1
    24   15   28 1
    25   16   17 1
    26   16   29 1
    27   16   30 1
    28   17   31 1
    29   17   32 1
    30   18   23 ar
    31   18   19 ar
    32   19   20 ar
    33   19   33 1
    34   20   21 ar
    35   20   34 1
    36   21   22 ar
    37   21   35 1
    38   22   23 ar
    39   22   36 1
    40   23   37 1
@<TRIPOS>MOLECULE
CHEMBL255911
   44    47     0     0     0
SMALL
USER_CHARGES

@<TRIPOS>ATOM
      1 C1         -0.0160    1.3805    0.0121 C.ar      1 <0>        -0.0845
      2 C2          1.1940    2.0587    0.0058 C.ar      1 <0>        -0.1507
      3 C3          2.3751    1.3384   -0.0079 C.ar      1 <0>         0.0950
      4 N1          2.3639    0.0216   -0.0151 N.ar      1 <0>        -0.4401
      5 C4          1.2287   -0.6643   -0.0095 C.ar      1 <0>         0.1611
      6 C5          0.0026   -0.0042    0.0042 C.ar      1 <0>        -0.1115
      7 C6          1.2656   -2.1481   -0.0186 C.ar      1 <0>         0.4092
      8 N2          2.4380   -2.7630   -0.0267 N.ar      1 <0>        -0.4864
      9 C7          2.5098   -4.0942   -0.0349 C.ar      1 <0>         0.2782
     10 C8          1.3267   -4.8365   -0.0349 C.ar      1 <0>        -0.2114
     11 C9          0.1146   -4.1498   -0.0262 C.ar      1 <0>         0.4167
     12 N3          0.1237   -2.8213   -0.0129 N.ar      1 <0>        -0.4961
     13 N4         -1.0897   -4.8461   -0.0263 N.am      1 <0>        -0.6508
     14 C10        -2.2547   -4.1775    0.0853 C.2       1 <0>         0.5075
     15 O1         -2.2595   -2.9649    0.0929 O.2       1 <0>        -0.4361
     16 C11        -3.5512   -4.9370    0.2004 C.3       1 <0>         0.0436
     17 O2         -4.6365   -4.0134    0.3061 O.3       1 <0>        -0.2854
     18 C12        -5.8850   -4.5386    0.4183 C.ar      1 <0>         0.1288
     19 C13        -6.0596   -5.9161    0.4320 C.ar      1 <0>        -0.1818
     20 C14        -7.3270   -6.4563    0.5463 C.ar      1 <0>        -0.0768
     21 C15        -8.4276   -5.6300    0.6471 C.ar      1 <0>        -0.1050
     22 C16        -8.2621   -4.2436    0.6342 C.ar      1 <0>         0.0158
     23 C17        -6.9813   -3.7000    0.5245 C.ar      1 <0>        -0.0988
     24 C18        -9.4018   -3.3828    0.7386 C.1       1 <0>         0.2502
     25 N5        -10.3058   -2.7000    0.8214 N.1       1 <0>        -0.4020
     26 C19         3.8223   -4.7746   -0.0444 C.2       1 <0>         0.1187
     27 N6          4.0976   -6.0713   -0.0592 N.2       1 <0>        -0.4758
     28 C20         5.3335   -6.5055   -0.0663 C.2       1 <0>         0.0203
     29 C21         6.3648   -5.6160   -0.0584 C.2       1 <0>        -0.1964
     30 S1          5.4657   -4.0699   -0.0470 S.3       1 <0>         0.1055
     31 H1         -0.9515    1.9201    0.0272 H         1 <0>         0.1422
     32 H2          1.2139    3.1386    0.0113 H         1 <0>         0.1405
     33 H3          3.3191    1.8631   -0.0131 H         1 <0>         0.1633
     34 H4         -0.9208   -0.5643    0.0091 H         1 <0>         0.1576
     35 H5          1.3510   -5.9163   -0.0418 H         1 <0>         0.1647
     36 H6         -1.0910   -5.8127   -0.1066 H         1 <0>         0.4263
     37 H7         -3.6880   -5.5586   -0.6844 H         1 <0>         0.1027
     38 H8         -3.5244   -5.5692    1.0880 H         1 <0>         0.1032
     39 H9         -5.2021   -6.5679    0.3528 H         1 <0>         0.1368
     40 H10        -7.4562   -7.5285    0.5564 H         1 <0>         0.1399
     41 H11        -9.4164   -6.0554    0.7355 H         1 <0>         0.1373
     42 H12        -6.8463   -2.6284    0.5180 H         1 <0>         0.1446
     43 H13         5.5342   -7.5666   -0.0780 H         1 <0>         0.1750
     44 H14         7.4299   -5.7947   -0.0624 H         1 <0>         0.2046
@<TRIPOS>BOND
     1    1    6 ar
     2    1    2 ar
     3    1   31 1
     4    2    3 ar
     5    2   32 1
     6    3    4 ar
     7    3   33 1
     8    4    5 ar
     9    5    6 ar
    10    5    7 1
    11    6   34 1
    12    7   12 ar
    13    7    8 ar
    14    8    9 ar
    15    9   10 ar
    16    9   26 1
    17   10   11 ar
    18   10   35 1
    19   11   12 ar
    20   11   13 1
    21   13   14 am
    22   13   36 1
    23   14   15 2
    24   14   16 1
    25   16   17 1
    26   16   37 1
    27   16   38 1
    28   17   18 1
    29   18   23 ar
    30   18   19 ar
    31   19   20 ar
    32   19   39 1
    33   20   21 ar
    34   20   40 1
    35   21   22 ar
    36   21   41 1
    37   22   23 ar
    38   22   24 1
    39   23   42 1
    40   24   25 3
    41   26   30 1
    42   26   27 2
    43   27   28 1
    44   28   29 2
    45   28   43 1
    46   29   30 1
    47   29   44 1
@<TRIPOS>MOLECULE
CHEMBL611583
   61    64     0     0     0
SMALL
USER_CHARGES

@<TRIPOS>ATOM
      1 C1         -0.0187    1.5258    0.0104 C.3       1 <0>        -0.1670
      2 C2          0.0021   -0.0041    0.0020 C.3       1 <0>         0.1128
      3 N1          0.7106   -0.4894    1.1889 N.am      1 <0>        -0.7285
      4 C3          0.8538   -1.8138    1.3937 C.2       1 <0>         0.4959
      5 O1          0.3960   -2.6038    0.5954 O.2       1 <0>        -0.5069
      6 C4          1.5826   -2.3130    2.6146 C.3       1 <0>         0.0431
      7 H1          1.1224   -1.9026    3.5134 H         1 <0>         0.1279
      8 C5          3.0665   -1.8924    2.5472 C.3       1 <0>         0.0513
      9 H2          3.3680   -1.6973    1.5180 H         1 <0>         0.0957
     10 C6          3.7905   -3.1472    3.1069 C.3       1 <0>         0.0789
     11 H3          4.7968   -3.2354    2.6974 H         1 <0>         0.1023
     12 C7          2.8715   -4.2772    2.5784 C.3       1 <0>         0.3212
     13 O2          1.5379   -3.7441    2.6559 O.3       1 <0>        -0.3331
     14 N2          2.9919   -5.4677    3.4236 N.pl3     1 <0>        -0.4614
     15 C8          2.1765   -5.8051    4.4626 C.2       1 <0>         0.2831
     16 N3          2.5720   -6.9261    4.9924 N.2       1 <0>        -0.4661
     17 C9          3.6632   -7.3781    4.3290 C.ar      1 <0>        -0.1081
     18 C10         3.9426   -6.4505    3.3110 C.ar      1 <0>         0.3112
     19 N4          4.9756   -6.6688    2.5040 N.ar      1 <0>        -0.5542
     20 C11         5.7274   -7.7394    2.6511 C.ar      1 <0>         0.3916
     21 N5          5.5023   -8.6400    3.5902 N.ar      1 <0>        -0.5858
     22 C12         4.4976   -8.5022    4.4493 C.ar      1 <0>         0.5100
     23 N6          4.2689   -9.4520    5.4295 N.pl3     1 <0>        -0.8180
     24 C13         6.8882   -7.9450    1.7123 C.3       1 <0>        -0.0442
     25 C14         8.1398   -7.2874    2.2972 C.3       1 <0>        -0.0771
     26 C15         7.9363   -5.7725    2.3635 C.3       1 <0>        -0.1088
     27 C16         9.1879   -5.1149    2.9483 C.3       1 <0>        -0.1125
     28 C17        10.3923   -5.4293    2.0586 C.3       1 <0>        -0.0867
     29 C18        10.5958   -6.9442    1.9923 C.3       1 <0>        -0.1091
     30 C19         9.3442   -7.6018    1.4075 C.3       1 <0>        -0.1126
     31 C20        11.6439   -4.7717    2.6435 C.3       1 <0>         0.0782
     32 O3         12.7446   -4.9667    1.7533 O.3       1 <0>        -0.5730
     33 O4          3.8189   -3.1310    4.5355 O.3       1 <0>        -0.5326
     34 O5          3.3094   -0.7503    3.3710 O.3       1 <0>        -0.5372
     35 H4          1.0039    1.9031    0.0027 H         1 <0>         0.0631
     36 H5         -0.5459    1.8868   -0.8726 H         1 <0>         0.0783
     37 H6         -0.5289    1.8773    0.9072 H         1 <0>         0.0638
     38 H7         -1.0205   -0.3814    0.0098 H         1 <0>         0.0717
     39 H8          0.5123   -0.3556   -0.8948 H         1 <0>         0.0712
     40 H9          1.0768    0.1425    1.8273 H         1 <0>         0.3970
     41 H10         3.1239   -4.5183    1.5458 H         1 <0>         0.1300
     42 H11         1.3276   -5.2272    4.7971 H         1 <0>         0.2190
     43 H12         3.5255   -9.3460    6.0436 H         1 <0>         0.4190
     44 H13         4.8519  -10.2238    5.5025 H         1 <0>         0.4101
     45 H14         7.0657   -9.0126    1.5824 H         1 <0>         0.0938
     46 H15         6.6587   -7.4946    0.7466 H         1 <0>         0.0914
     47 H16         8.3184   -7.6743    3.3005 H         1 <0>         0.0741
     48 H17         7.7578   -5.3856    1.3602 H         1 <0>         0.0655
     49 H18         7.0783   -5.5485    2.9973 H         1 <0>         0.0643
     50 H19         9.0430   -4.0356    2.9956 H         1 <0>         0.0604
     51 H20         9.3665   -5.5018    3.9516 H         1 <0>         0.0609
     52 H21        10.2137   -5.0424    1.0554 H         1 <0>         0.0772
     53 H22        11.4538   -7.1682    1.3585 H         1 <0>         0.0703
     54 H23        10.7744   -7.3311    2.9956 H         1 <0>         0.0591
     55 H24         9.4891   -8.6811    1.3603 H         1 <0>         0.0663
     56 H25         9.1656   -7.2150    0.4042 H         1 <0>         0.0652
     57 H26        11.4664   -3.7041    2.7734 H         1 <0>         0.0430
     58 H27        11.8734   -5.2221    3.6092 H         1 <0>         0.0442
     59 H28        13.5735   -4.5751    2.0610 H         1 <0>         0.3788
     60 H29         4.2943   -2.3773    4.9109 H         1 <0>         0.3944
     61 H30         2.8099    0.0358    3.1107 H         1 <0>         0.3876
@<TRIPOS>BOND
     1    1    2 1
     2    1   35 1
     3    1   36 1
     4    1   37 1
     5    2    3 1
     6    2   38 1
     7    2   39 1
     8    3    4 am
     9    3   40 1
    10    4    5 2
    11    4    6 1
    12    6    7 1
    13    6   13 1
    14    6    8 1
    15    8    9 1
    16    8   10 1
    17    8   34 1
    18   10   11 1
    19   10   12 1
    20   10   33 1
    21   12   13 1
    22   12   14 1
    23   12   41 1
    24   14   18 1
    25   14   15 1
    26   15   16 2
    27   15   42 1
    28   16   17 1
    29   17   22 ar
    30   17   18 ar
    31   18   19 ar
    32   19   20 ar
    33   20   21 ar
    34   20   24 1
    35   21   22 ar
    36   22   23 1
    37   23   43 1
    38   23   44 1
    39   24   25 1
    40   24   45 1
    41   24   46 1
    42   25   30 1
    43   25   26 1
    44   25   47 1
    45   26   27 1
    46   26   48 1
    47   26   49 1
    48   27   28 1
    49   27   50 1
    50   27   51 1
    51   28   29 1
    52   28   31 1
    53   28   52 1
    54   29   30 1
    55   29   53 1
    56   29   54 1
    57   30   55 1
    58   30   56 1
    59   31   32 1
    60   31   57 1
    61   31   58 1
    62   32   59 1
    63   33   60 1
    64   34   61 1
@<TRIPOS>MOLECULE
CHEMBL256332
   67    71     0     0     0
SMALL
USER_CHARGES

@<TRIPOS>ATOM
      1 C1          8.3276   -1.9632   -0.0229 C.3       1 <0>        -0.0814
      2 C2          7.2456   -3.0122   -0.0325 C.2       1 <0>         0.0279
      3 C3          7.4442   -4.3460   -0.0478 C.2       1 <0>        -0.2270
      4 C4          6.1740   -4.9523   -0.0521 C.2       1 <0>        -0.1096
      5 C5          5.2590   -3.9452   -0.0390 C.2       1 <0>         0.0059
      6 O1          5.9255   -2.7740   -0.0213 O.3       1 <0>        -0.1503
      7 C6          3.7924   -4.1072   -0.0379 C.ar      1 <0>         0.4651
      8 N1          3.2761   -5.3312   -0.0451 N.ar      1 <0>        -0.5080
      9 C7          1.9604   -5.5132   -0.0444 C.ar      1 <0>         0.4352
     10 C8          1.1213   -4.4006   -0.0358 C.ar      1 <0>        -0.2583
     11 C9          1.6977   -3.1348   -0.0284 C.ar      1 <0>         0.4579
     12 N2          3.0215   -3.0261   -0.0242 N.ar      1 <0>        -0.5411
     13 N3          0.8947   -1.9926   -0.0198 N.pl3     1 <0>        -0.3361
     14 C10         1.2507   -0.7669    0.4467 C.2       1 <0>         0.1166
     15 C11         0.1939    0.0593    0.2742 C.2       1 <0>        -0.2577
     16 C12        -0.8398   -0.6788   -0.3144 C.2       1 <0>         0.1065
     17 N4         -0.4198   -1.9040   -0.4962 N.2       1 <0>        -0.2869
     18 C13        -2.2022   -0.1499   -0.6819 C.3       1 <0>        -0.0776
     19 C14         2.5818   -0.3957    1.0479 C.3       1 <0>        -0.0893
     20 N5          1.4270   -6.7978   -0.0524 N.am      1 <0>        -0.6481
     21 C15         2.2422   -7.8653   -0.1639 C.2       1 <0>         0.5083
     22 O2          3.4451   -7.7122   -0.1643 O.2       1 <0>        -0.4329
     23 C16         1.6587   -9.2492   -0.2879 C.3       1 <0>         0.0387
     24 O3          2.7164  -10.2045   -0.3918 O.3       1 <0>        -0.2754
     25 C17         2.3590  -11.5102   -0.5112 C.ar      1 <0>         0.1727
     26 C18         3.3352  -12.4914   -0.6107 C.ar      1 <0>        -0.1351
     27 C19         2.9708  -13.8183   -0.7322 C.ar      1 <0>        -0.0880
     28 C20         1.6340  -14.1705   -0.7547 C.ar      1 <0>        -0.1720
     29 C21         0.6572  -13.1940   -0.6556 C.ar      1 <0>         0.1567
     30 C22         1.0183  -11.8642   -0.5281 C.ar      1 <0>        -0.2239
     31 F1         -0.6486  -13.5402   -0.6783 F         1 <0>        -0.1200
     32 C23         4.0315  -14.8832   -0.8407 C.3       1 <0>         0.0496
     33 N6          4.3875  -15.3585    0.5030 N.4       1 <0>        -0.3942
     34 C24         3.2535  -16.1120    1.0968 C.3       1 <0>        -0.0082
     35 C25         3.9365  -16.9865    2.1781 C.3       1 <0>        -0.1452
     36 C26         5.2722  -17.3836    1.5086 C.3       1 <0>        -0.1450
     37 C27         5.5111  -16.3170    0.4238 C.3       1 <0>        -0.0089
     38 H1          7.8730   -0.9726   -0.0058 H         1 <0>         0.0809
     39 H2          8.9509   -2.0922    0.8620 H         1 <0>         0.0927
     40 H3          8.9413   -2.0660   -0.9178 H         1 <0>         0.0926
     41 H4          8.3977   -4.8532   -0.0557 H         1 <0>         0.1574
     42 H5          5.9658   -6.0120   -0.0639 H         1 <0>         0.1643
     43 H6          0.0478   -4.5186   -0.0354 H         1 <0>         0.1634
     44 H7          0.1544    1.1044    0.5435 H         1 <0>         0.1613
     45 H8         -2.1808    0.2311   -1.7029 H         1 <0>         0.0849
     46 H9         -2.9355   -0.9532   -0.6092 H         1 <0>         0.0775
     47 H10        -2.4759    0.6547    0.0005 H         1 <0>         0.0858
     48 H11         3.2532   -0.0531    0.2605 H         1 <0>         0.0894
     49 H12         2.4411    0.4015    1.7778 H         1 <0>         0.0851
     50 H13         3.0138   -1.2670    1.5402 H         1 <0>         0.0776
     51 H14         0.4683   -6.9254    0.0222 H         1 <0>         0.4273
     52 H15         1.0554   -9.4695    0.5927 H         1 <0>         0.1069
     53 H16         1.0333   -9.3013   -1.1791 H         1 <0>         0.1082
     54 H17         4.3798  -12.2177   -0.5936 H         1 <0>         0.1506
     55 H18         1.3514  -15.2085   -0.8501 H         1 <0>         0.1469
     56 H19         0.2570  -11.1027   -0.4459 H         1 <0>         0.1535
     57 H20         3.6510  -15.7162   -1.4318 H         1 <0>         0.1419
     58 H21         4.9152  -14.4677   -1.3251 H         1 <0>         0.1438
     59 H22         2.5345  -15.4302    1.5511 H         1 <0>         0.1338
     60 H23         2.7710  -16.7366    0.3451 H         1 <0>         0.1340
     61 H24         4.1163  -16.4086    3.0846 H         1 <0>         0.0979
     62 H25         3.3363  -17.8701    2.3953 H         1 <0>         0.1168
     63 H26         6.0810  -17.3679    2.2392 H         1 <0>         0.1055
     64 H27         5.1895  -18.3717    1.0559 H         1 <0>         0.1043
     65 H28         5.5306  -16.7859   -0.5600 H         1 <0>         0.1325
     66 H29         6.4530  -15.8013    0.6111 H         1 <0>         0.1339
     67 H30         4.6360  -14.5791    1.0937 H         1 <0>         0.4283
@<TRIPOS>BOND
     1    1    2 1
     2    1   38 1
     3    1   39 1
     4    1   40 1
     5    2    6 1
     6    2    3 2
     7    3    4 1
     8    3   41 1
     9    4    5 2
    10    4   42 1
    11    5    6 1
    12    5    7 1
    13    7   12 ar
    14    7    8 ar
    15    8    9 ar
    16    9   10 ar
    17    9   20 1
    18   10   11 ar
    19   10   43 1
    20   11   12 ar
    21   11   13 1
    22   13   17 1
    23   13   14 1
    24   14   15 2
    25   14   19 1
    26   15   16 1
    27   15   44 1
    28   16   17 2
    29   16   18 1
    30   18   45 1
    31   18   46 1
    32   18   47 1
    33   19   48 1
    34   19   49 1
    35   19   50 1
    36   20   21 am
    37   20   51 1
    38   21   22 2
    39   21   23 1
    40   23   24 1
    41   23   52 1
    42   23   53 1
    43   24   25 1
    44   25   30 ar
    45   25   26 ar
    46   26   27 ar
    47   26   54 1
    48   27   28 ar
    49   27   32 1
    50   28   29 ar
    51   28   55 1
    52   29   30 ar
    53   29   31 1
    54   30   56 1
    55   32   33 1
    56   32   57 1
    57   32   58 1
    58   33   37 1
    59   33   34 1
    60   33   67 1
    61   34   35 1
    62   34   59 1
    63   34   60 1
    64   35   36 1
    65   35   61 1
    66   35   62 1
    67   36   37 1
    68   36   63 1
    69   36   64 1
    70   37   65 1
    71   37   66 1
@<TRIPOS>MOLECULE
CHEMBL85549
   48    51     0     0     0
SMALL
USER_CHARGES

@<TRIPOS>ATOM
      1 C1         -0.0158    1.3119    0.0093 C.ar      1 <0>         0.3606
      2 N1          1.0888    2.0360    0.0026 N.ar      1 <0>        -0.5889
      3 C2          2.2875    1.4625   -0.0119 C.ar      1 <0>         0.5078
      4 C3          2.3582    0.0588   -0.0202 C.ar      1 <0>        -0.1035
      5 C4          1.1547   -0.6659   -0.0126 C.ar      1 <0>         0.3087
      6 N2          0.0021   -0.0041    0.0020 N.ar      1 <0>        -0.5647
      7 N3          1.5110   -1.9908   -0.0227 N.pl3     1 <0>        -0.4638
      8 C5          2.8729   -2.0476   -0.0358 C.2       1 <0>         0.2803
      9 N4          3.3680   -0.8441   -0.0343 N.2       1 <0>        -0.4680
     10 C6          0.5956   -3.1347   -0.0195 C.3       1 <0>         0.3143
     11 C7          0.1918   -3.4782    1.4304 C.3       1 <0>         0.0769
     12 H1         -0.7989   -3.0862    1.6604 H         1 <0>         0.0987
     13 C8          0.1808   -5.0311    1.4103 C.3       1 <0>         0.0474
     14 H2         -0.7670   -5.4124    1.0302 H         1 <0>         0.0934
     15 C9          1.3366   -5.3206    0.4198 C.3       1 <0>         0.0513
     16 H3          2.2964   -5.2744    0.9344 H         1 <0>         0.0982
     17 O1          1.2511   -4.2831   -0.5700 O.3       1 <0>        -0.3466
     18 C10         1.1486   -6.6934   -0.2291 C.3       1 <0>         0.0780
     19 O2          2.2806   -6.9919   -1.0486 O.3       1 <0>        -0.5628
     20 O3          0.4650   -5.5650    2.7050 O.3       1 <0>        -0.5427
     21 O4          1.1597   -2.9844    2.3585 O.3       1 <0>        -0.5344
     22 N5          3.4393    2.2295   -0.0193 N.pl3     1 <0>        -0.6909
     23 C11         3.3458    3.6915   -0.0110 C.3       1 <0>         0.1527
     24 C12         3.1739    4.1997   -1.4439 C.3       1 <0>        -0.1277
     25 C13         3.0763    5.7266   -1.4352 C.3       1 <0>        -0.1159
     26 C14         4.3543    6.3159   -0.8350 C.3       1 <0>        -0.1231
     27 C15         4.5262    5.8077    0.5979 C.3       1 <0>        -0.1144
     28 C16         4.6238    4.2809    0.5892 C.3       1 <0>        -0.1289
     29 H4         -0.9693    1.8187    0.0257 H         1 <0>         0.2019
     30 H5          3.4551   -2.9572   -0.0459 H         1 <0>         0.2146
     31 H6         -0.2923   -2.8991   -0.6062 H         1 <0>         0.1359
     32 H7          1.0520   -7.4522    0.5474 H         1 <0>         0.0638
     33 H8          0.2479   -6.6848   -0.8429 H         1 <0>         0.0592
     34 H9          2.2296   -7.8495   -1.4925 H         1 <0>         0.3858
     35 H10         0.4686   -6.5314    2.7398 H         1 <0>         0.3904
     36 H11         0.9510   -3.1752    3.2832 H         1 <0>         0.3934
     37 H12         4.3085    1.7992   -0.0299 H         1 <0>         0.4159
     38 H13         2.4883    3.9974    0.5884 H         1 <0>         0.0940
     39 H14         4.0314    3.8938   -2.0432 H         1 <0>         0.0605
     40 H15         2.2634    3.7798   -1.8715 H         1 <0>         0.0684
     41 H16         2.9538    6.0886   -2.4560 H         1 <0>         0.0639
     42 H17         2.2188    6.0324   -0.8359 H         1 <0>         0.0657
     43 H18         5.2118    6.0100   -1.4344 H         1 <0>         0.0620
     44 H19         4.2848    7.4037   -0.8288 H         1 <0>         0.0639
     45 H20         5.4367    6.2276    1.0255 H         1 <0>         0.0670
     46 H21         3.6687    6.1136    1.1972 H         1 <0>         0.0658
     47 H22         4.7463    3.9188    1.6100 H         1 <0>         0.0685
     48 H23         5.4813    3.9750   -0.0101 H         1 <0>         0.0676
@<TRIPOS>BOND
     1    1    6 ar
     2    1    2 ar
     3    1   29 1
     4    2    3 ar
     5    3    4 ar
     6    3   22 1
     7    4    9 1
     8    4    5 ar
     9    5    6 ar
    10    5    7 1
    11    7    8 1
    12    7   10 1
    13    8    9 2
    14    8   30 1
    15   10   17 1
    16   10   11 1
    17   10   31 1
    18   11   12 1
    19   11   13 1
    20   11   21 1
    21   13   14 1
    22   13   15 1
    23   13   20 1
    24   15   16 1
    25   15   17 1
    26   15   18 1
    27   18   19 1
    28   18   32 1
    29   18   33 1
    30   19   34 1
    31   20   35 1
    32   21   36 1
    33   22   23 1
    34   22   37 1
    35   23   28 1
    36   23   24 1
    37   23   38 1
    38   24   25 1
    39   24   39 1
    40   24   40 1
    41   25   26 1
    42   25   41 1
    43   25   42 1
    44   26   27 1
    45   26   43 1
    46   26   44 1
    47   27   28 1
    48   27   45 1
    49   27   46 1
    50   28   47 1
    51   28   48 1
@<TRIPOS>MOLECULE
CHEMBL369070
   52    56     0     0     0
SMALL
USER_CHARGES

@<TRIPOS>ATOM
      1 C1          7.5956    7.9126    3.3418 C.ar      1 <0>        -0.1637
      2 C2          7.4987    6.7201    2.6406 C.ar      1 <0>        -0.0455
      3 C3          6.3081    6.4309    1.9921 C.ar      1 <0>        -0.2253
      4 C4          5.2645    7.3343    2.0654 C.ar      1 <0>         0.1344
      5 N1          5.3924    8.4592    2.7413 N.ar      1 <0>        -0.4730
      6 C5          6.5098    8.7669    3.3706 C.ar      1 <0>         0.1447
      7 C6          6.1538    5.1480    1.2165 C.3       1 <0>         0.0376
      8 N2          5.6364    4.0983    2.1044 N.4       1 <0>        -0.3828
      9 C7          6.6364    3.7935    3.1499 C.3       1 <0>        -0.0120
     10 C8          6.5157    2.2663    3.3795 C.3       1 <0>        -0.1401
     11 C9          6.2496    1.7530    1.9399 C.3       1 <0>        -0.1441
     12 C10         5.3815    2.8718    1.3268 C.3       1 <0>         0.0081
     13 H1          4.3275    2.6024    1.3942 H         1 <0>         0.1544
     14 C11         5.7730    3.0920   -0.1358 C.3       1 <0>         0.1044
     15 N3          5.4577    1.8903   -0.9120 N.pl3     1 <0>        -0.6674
     16 C12         5.8181    1.8135   -2.2414 C.2       1 <0>         0.6651
     17 N4          5.5197    0.7141   -2.9392 N.pl3     1 <0>        -0.5984
     18 C13         5.8529    0.6139   -4.2133 C.cat     1 <0>         0.7705
     19 N5          6.5083    1.6470   -4.8172 N.pl3     1 <0>        -0.4015
     20 C14         6.8098    2.7706   -4.0927 C.2       1 <0>         0.5317
     21 N6          6.4481    2.8321   -2.8031 N.2       1 <0>        -0.5002
     22 N7          7.4366    3.6094   -4.9011 N.2       1 <0>        -0.4512
     23 C15         7.5475    3.0630   -6.1186 C.2       1 <0>         0.4194
     24 N8          6.9940    1.8651   -6.1114 N.2       1 <0>        -0.2809
     25 C16         8.1888    3.7014   -7.2869 C.2       1 <0>        -0.0169
     26 C17         8.7671    4.9317   -7.3064 C.2       1 <0>        -0.0819
     27 C18         9.2468    5.1340   -8.6156 C.2       1 <0>        -0.2229
     28 C19         8.9407    4.0287   -9.3233 C.2       1 <0>         0.0367
     29 O1          8.3069    3.1632   -8.5161 O.3       1 <0>        -0.1573
     30 N9          5.5436   -0.5174   -4.9219 N.pl3     1 <0>        -0.7349
     31 H2          8.5065    8.1683    3.8626 H         1 <0>         0.1533
     32 H3          8.3312    6.0333    2.6004 H         1 <0>         0.1427
     33 H4          4.3337    7.1164    1.5629 H         1 <0>         0.1613
     34 H5          6.5771    9.6973    3.9148 H         1 <0>         0.1735
     35 H6          5.4570    5.3031    0.3927 H         1 <0>         0.1451
     36 H7          7.1227    4.8440    0.8206 H         1 <0>         0.1430
     37 H8          7.6380    4.0469    2.8024 H         1 <0>         0.1349
     38 H9          6.4037    4.3347    4.0669 H         1 <0>         0.1408
     39 H10         7.4450    1.8562    3.7748 H         1 <0>         0.1240
     40 H11         5.6779    2.0354    4.0375 H         1 <0>         0.1051
     41 H12         7.1846    1.6456    1.3901 H         1 <0>         0.1045
     42 H13         5.7036    0.8098    1.9618 H         1 <0>         0.1178
     43 H14         5.2176    3.9398   -0.5369 H         1 <0>         0.1165
     44 H15         6.8421    3.2953   -0.1991 H         1 <0>         0.1190
     45 H16         4.9955    1.1485   -0.4912 H         1 <0>         0.4342
     46 H17         8.8437    5.6209   -6.4784 H         1 <0>         0.1698
     47 H18         9.7619    6.0094   -8.9826 H         1 <0>         0.1712
     48 H19         9.1712    3.8646  -10.3656 H         1 <0>         0.2258
     49 H20         5.0778   -1.2493   -4.4880 H         1 <0>         0.4506
     50 H21         5.7904   -0.5863   -5.8575 H         1 <0>         0.4640
     51 H22         4.7800    4.4102    2.5372 H         1 <0>         0.4348
     52 H23         5.0540   -0.0180   -2.5056 H         1 <0>         0.4615
@<TRIPOS>BOND
     1    1    6 ar
     2    1    2 ar
     3    1   31 1
     4    2    3 ar
     5    2   32 1
     6    3    4 ar
     7    3    7 1
     8    4    5 ar
     9    4   33 1
    10    5    6 ar
    11    6   34 1
    12    7    8 1
    13    7   35 1
    14    7   36 1
    15    8   12 1
    16    8    9 1
    17    8   51 1
    18    9   10 1
    19    9   37 1
    20    9   38 1
    21   10   11 1
    22   10   39 1
    23   10   40 1
    24   11   12 1
    25   11   41 1
    26   11   42 1
    27   12   13 1
    28   12   14 1
    29   14   15 1
    30   14   43 1
    31   14   44 1
    32   15   16 1
    33   15   45 1
    34   16   21 2
    35   16   17 1
    36   17   18 2
    37   17   52 1
    38   18   19 1
    39   18   30 1
    40   19   24 1
    41   19   20 1
    42   20   21 1
    43   20   22 2
    44   22   23 1
    45   23   24 2
    46   23   25 1
    47   25   29 1
    48   25   26 2
    49   26   27 1
    50   26   46 1
    51   27   28 2
    52   27   47 1
    53   28   29 1
    54   28   48 1
    55   30   49 1
    56   30   50 1
@<TRIPOS>MOLECULE
CHEMBL374881
   65    71     0     0     0
SMALL
USER_CHARGES

@<TRIPOS>ATOM
      1 C1         -0.0168    1.3887    0.0097 C.ar      1 <0>        -0.1563
      2 C2          1.1576    2.0864    0.0022 C.ar      1 <0>        -0.0650
      3 C3          2.3624    1.3586   -0.0132 C.ar      1 <0>        -0.0679
      4 C4          3.6070    2.0073   -0.0210 C.ar      1 <0>        -0.1267
      5 C5          4.7540    1.2656   -0.0356 C.ar      1 <0>         0.1145
      6 C6          4.7018   -0.1318   -0.0432 C.ar      1 <0>        -0.1812
      7 C7          3.5113   -0.7885   -0.0359 C.ar      1 <0>        -0.0441
      8 C8          2.3095   -0.0578   -0.0203 C.ar      1 <0>         0.0997
      9 N1          1.1261   -0.6788   -0.0118 N.ar      1 <0>        -0.4679
     10 C9          0.0021   -0.0041    0.0020 C.ar      1 <0>         0.1321
     11 O1          5.9595    1.8928   -0.0432 O.3       1 <0>        -0.2997
     12 C10         7.1226    1.0628   -0.0583 C.3       1 <0>         0.0474
     13 C11         8.3757    1.9407   -0.0650 C.3       1 <0>        -0.1106
     14 H1          8.3293    2.6374   -0.9020 H         1 <0>         0.1350
     15 C12         8.4622    2.7226    1.2501 C.3       1 <0>        -0.1282
     16 C13         8.5766    1.7254    2.4040 C.3       1 <0>        -0.1434
     17 C14         9.7996    0.8255    2.1959 C.3       1 <0>         0.0153
     18 H2         10.7045    1.4332    2.1981 H         1 <0>         0.1483
     19 C15         9.8497   -0.1754    3.3583 C.3       1 <0>         0.1083
     20 N2         10.9146   -1.1549    3.1059 N.pl3     1 <0>        -0.5995
     21 C16        10.9300   -1.8258    1.7959 C.3       1 <0>         0.0907
     22 C17        10.8656   -0.7473    0.7122 C.3       1 <0>        -0.0218
     23 N3          9.6896    0.1131    0.9187 N.4       1 <0>        -0.3839
     24 C18         9.6174    1.0602   -0.1994 C.3       1 <0>         0.0001
     25 C19        11.8606   -1.4340    4.0563 C.2       1 <0>         0.6638
     26 N4         12.8428   -2.3533    3.7767 N.pl3     1 <0>        -0.7075
     27 C20        14.0397   -2.2931    4.4899 C.2       1 <0>         0.6315
     28 N5         13.9028   -1.7905    5.7735 N.pl3     1 <0>        -0.3829
     29 C21        12.7912   -1.0491    6.1175 C.2       1 <0>         0.4991
     30 N6         11.8114   -0.8086    5.2208 N.2       1 <0>        -0.5245
     31 N7         12.9290   -0.6965    7.3698 N.2       1 <0>        -0.4758
     32 C22        14.0849   -1.1873    7.8529 C.2       1 <0>         0.3323
     33 N8         14.7044   -1.8643    6.9005 N.2       1 <0>        -0.2427
     34 C23        14.5840   -0.9991    9.2310 C.2       1 <0>         0.0315
     35 C24        13.9549   -0.3106   10.2203 C.2       1 <0>        -0.1240
     36 C25        14.7824   -0.3880   11.3581 C.2       1 <0>        -0.2196
     37 C26        15.8644   -1.1123   11.0108 C.2       1 <0>        -0.0008
     38 O2         15.7384   -1.4848    9.7268 O.3       1 <0>        -0.1587
     39 N9         15.1822   -2.6753    3.9945 N.2       1 <0>        -0.6519
     40 H3         -0.9590    1.9164    0.0260 H         1 <0>         0.1452
     41 H4          1.1616    3.1663    0.0076 H         1 <0>         0.1441
     42 H5          3.6576    3.0861   -0.0159 H         1 <0>         0.1408
     43 H6          5.6213   -0.6982   -0.0554 H         1 <0>         0.1279
     44 H7          3.4884   -1.8682   -0.0419 H         1 <0>         0.1427
     45 H8         -0.9341   -0.5425    0.0084 H         1 <0>         0.1656
     46 H9          7.1280    0.4286    0.8282 H         1 <0>         0.0560
     47 H10         7.1117    0.4383   -0.9517 H         1 <0>         0.0760
     48 H11         9.3409    3.3674    1.2353 H         1 <0>         0.0896
     49 H12         7.5638    3.3268    1.3764 H         1 <0>         0.1078
     50 H13         8.6825    2.2687    3.3430 H         1 <0>         0.1233
     51 H14         7.6772    1.1109    2.4421 H         1 <0>         0.0925
     52 H15        10.0560    0.3557    4.2875 H         1 <0>         0.1544
     53 H16         8.8923   -0.6904    3.4370 H         1 <0>         0.1037
     54 H17        11.8487   -2.4024    1.6879 H         1 <0>         0.1246
     55 H18        10.0673   -2.4865    1.7100 H         1 <0>         0.1133
     56 H19        11.7671   -0.1362    0.7559 H         1 <0>         0.1393
     57 H20        10.7990   -1.2216   -0.2669 H         1 <0>         0.1534
     58 H21         9.5717    0.5129   -1.1408 H         1 <0>         0.1397
     59 H22        10.5080    1.6887   -0.1927 H         1 <0>         0.1410
     60 H23        13.0049    0.1979   10.1479 H         1 <0>         0.1630
     61 H24        14.5868    0.0505   12.3255 H         1 <0>         0.1612
     62 H25        16.6931   -1.3567   11.6589 H         1 <0>         0.2154
     63 H26        15.2270   -3.0213    3.0894 H         1 <0>         0.3682
     64 H27        12.7061   -3.0313    3.0966 H         1 <0>         0.4280
     65 H28         8.8573   -0.4572    0.9217 H         1 <0>         0.4188
@<TRIPOS>BOND
     1    1   10 ar
     2    1    2 ar
     3    1   40 1
     4    2    3 ar
     5    2   41 1
     6    3    8 ar
     7    3    4 ar
     8    4    5 ar
     9    4   42 1
    10    5    6 ar
    11    5   11 1
    12    6    7 ar
    13    6   43 1
    14    7    8 ar
    15    7   44 1
    16    8    9 ar
    17    9   10 ar
    18   10   45 1
    19   11   12 1
    20   12   13 1
    21   12   46 1
    22   12   47 1
    23   13   14 1
    24   13   24 1
    25   13   15 1
    26   15   16 1
    27   15   48 1
    28   15   49 1
    29   16   17 1
    30   16   50 1
    31   16   51 1
    32   17   18 1
    33   17   23 1
    34   17   19 1
    35   19   20 1
    36   19   52 1
    37   19   53 1
    38   20   21 1
    39   20   25 1
    40   21   22 1
    41   21   54 1
    42   21   55 1
    43   22   23 1
    44   22   56 1
    45   22   57 1
    46   23   24 1
    47   23   65 1
    48   24   58 1
    49   24   59 1
    50   25   30 2
    51   25   26 1
    52   26   27 1
    53   26   64 1
    54   27   28 1
    55   27   39 2
    56   28   33 1
    57   28   29 1
    58   29   30 1
    59   29   31 2
    60   31   32 1
    61   32   33 2
    62   32   34 1
    63   34   38 1
    64   34   35 2
    65   35   36 1
    66   35   60 1
    67   36   37 2
    68   36   61 1
    69   37   38 1
    70   37   62 1
    71   39   63 1
@<TRIPOS>MOLECULE
CHEMBL456069
   42    44     0     0     0
SMALL
USER_CHARGES

@<TRIPOS>ATOM
      1 C1         -0.8080    1.1325   -2.7886 C.3       1 <0>        -0.1700
      2 C2         -0.4326   -0.3197   -2.6429 C.2       1 <0>         0.4994
      3 O1         -0.0781   -0.9547   -3.6133 O.2       1 <0>        -0.4651
      4 N1         -0.4909   -0.9127   -1.4340 N.am      1 <0>        -0.6580
      5 C3         -0.2464   -2.2773   -1.3161 C.ar      1 <0>         0.4402
      6 C4         -0.4120   -2.9197   -0.0928 C.ar      1 <0>        -0.3281
      7 C5         -0.1563   -4.2876   -0.0210 C.ar      1 <0>         0.4858
      8 N2          0.2352   -4.9312   -1.1166 N.ar      1 <0>        -0.5498
      9 C6          0.3826   -4.2860   -2.2667 C.ar      1 <0>         0.4711
     10 N3          0.1429   -2.9850   -2.3716 N.ar      1 <0>        -0.5365
     11 C7          0.8196   -5.0367   -3.4629 C.2       1 <0>         0.1397
     12 N4          1.1014   -6.3258   -3.5907 N.2       1 <0>        -0.4577
     13 C8          1.4789   -6.8303   -4.7387 C.2       1 <0>         0.0185
     14 C9          1.5878   -6.0237   -5.8310 C.2       1 <0>        -0.2046
     15 S1          1.1030   -4.4519   -5.1287 S.3       1 <0>         0.1115
     16 N5         -0.3076   -4.9684    1.1771 N.pl3     1 <0>        -0.5888
     17 C10        -0.2182   -6.4295    1.3523 C.3       1 <0>         0.1195
     18 C11        -1.0377   -6.7261    2.6330 C.3       1 <0>        -0.1335
     19 C12        -0.6947   -5.4960    3.5142 C.3       1 <0>        -0.1247
     20 C13        -0.5776   -4.3524    2.4845 C.3       1 <0>         0.1464
     21 H1         -1.5129   -3.7942    2.4452 H         1 <0>         0.0913
     22 C14         0.5729   -3.4194    2.8676 C.3       1 <0>         0.0416
     23 O2          1.7587   -4.1879    3.0807 O.3       1 <0>        -0.3791
     24 C15         2.8992   -3.4079    3.4452 C.3       1 <0>         0.0316
     25 H2         -1.8736    1.2126   -3.0032 H         1 <0>         0.0991
     26 H3         -0.5833    1.6606   -1.8619 H         1 <0>         0.0825
     27 H4         -0.2385    1.5747   -3.6060 H         1 <0>         0.0998
     28 H5         -0.7032   -0.3882   -0.6462 H         1 <0>         0.4208
     29 H6         -0.7309   -2.3706    0.7809 H         1 <0>         0.1438
     30 H7          1.7036   -7.8836   -4.8193 H         1 <0>         0.1723
     31 H8          1.8809   -6.2668   -6.8416 H         1 <0>         0.2030
     32 H9         -0.6552   -6.9418    0.4952 H         1 <0>         0.0806
     33 H10         0.8200   -6.7325    1.4876 H         1 <0>         0.0711
     34 H11        -2.1048   -6.7644    2.4140 H         1 <0>         0.0754
     35 H12        -0.7040   -7.6502    3.1051 H         1 <0>         0.0877
     36 H13        -1.4955   -5.2964    4.2263 H         1 <0>         0.0840
     37 H14         0.2539   -5.6439    4.0305 H         1 <0>         0.0922
     38 H15         0.7435   -2.7037    2.0634 H         1 <0>         0.0556
     39 H16         0.3175   -2.8842    3.7822 H         1 <0>         0.0630
     40 H17         3.1180   -2.6919    2.6530 H         1 <0>         0.0391
     41 H18         2.6921   -2.8725    4.3718 H         1 <0>         0.0423
     42 H19         3.7574   -4.0643    3.5889 H         1 <0>         0.0873
@<TRIPOS>BOND
     1    1    2 1
     2    1   25 1
     3    1   26 1
     4    1   27 1
     5    2    3 2
     6    2    4 am
     7    4    5 1
     8    4   28 1
     9    5   10 ar
    10    5    6 ar
    11    6    7 ar
    12    6   29 1
    13    7    8 ar
    14    7   16 1
    15    8    9 ar
    16    9   10 ar
    17    9   11 1
    18   11   15 1
    19   11   12 2
    20   12   13 1
    21   13   14 2
    22   13   30 1
    23   14   15 1
    24   14   31 1
    25   16   20 1
    26   16   17 1
    27   17   18 1
    28   17   32 1
    29   17   33 1
    30   18   19 1
    31   18   34 1
    32   18   35 1
    33   19   20 1
    34   19   36 1
    35   19   37 1
    36   20   21 1
    37   20   22 1
    38   22   23 1
    39   22   38 1
    40   22   39 1
    41   23   24 1
    42   24   40 1
    43   24   41 1
    44   24   42 1
@<TRIPOS>MOLECULE
CHEMBL50051
   44    47     0     0     0
SMALL
USER_CHARGES

@<TRIPOS>ATOM
      1 C1         -0.0178    1.4608    0.0101 C.3       1 <0>         0.0786
      2 N1          0.0021   -0.0041    0.0020 N.pl3     1 <0>        -0.4616
      3 C2          0.0086   -0.8136   -1.1082 C.ar      1 <0>         0.3098
      4 C3          0.0290   -2.1375   -0.6291 C.ar      1 <0>        -0.0930
      5 C4          0.0392   -3.1867   -1.5690 C.ar      1 <0>         0.5188
      6 N2          0.0291   -2.8826   -2.8602 N.ar      1 <0>        -0.5704
      7 C5          0.0098   -1.6167   -3.2682 C.ar      1 <0>         0.4994
      8 N3         -0.0003   -0.5992   -2.4170 N.ar      1 <0>        -0.5345
      9 C6         -0.0003   -1.3429   -4.6738 C.1       1 <0>        -0.1021
     10 C7         -0.0087   -1.1184   -5.8261 C.1       1 <0>        -0.1088
     11 C8         -0.0191   -0.8370   -7.2709 C.3       1 <0>         0.2483
     12 C9          1.2355   -1.4302   -7.9151 C.3       1 <0>        -0.1395
     13 C10         2.4791   -0.8026   -7.2823 C.3       1 <0>        -0.1217
     14 C11         2.4572    0.7107   -7.5070 C.3       1 <0>        -0.1226
     15 C12         1.2026    1.3038   -6.8628 C.3       1 <0>        -0.1211
     16 C13        -0.0410    0.6762   -7.4956 C.3       1 <0>        -0.1025
     17 O1         -1.1807   -1.4232   -7.8620 O.3       1 <0>        -0.5444
     18 N4          0.0598   -4.5072   -1.1541 N.pl3     1 <0>        -0.8111
     19 N5          0.0340   -2.0813    0.7152 N.2       1 <0>        -0.4306
     20 C14         0.0237   -0.8258    1.1034 C.2       1 <0>         0.3489
     21 C15         0.0311   -0.3703    2.5011 C.2       1 <0>         0.0263
     22 C16        -0.2284   -1.1406    3.5957 C.2       1 <0>        -0.1255
     23 C17        -0.1111   -0.3012    4.7183 C.2       1 <0>        -0.2144
     24 C18         0.2106    0.9273    4.2628 C.2       1 <0>        -0.0098
     25 O2          0.3013    0.8806    2.9248 O.3       1 <0>        -0.1712
     26 H1          1.0048    1.8381    0.0023 H         1 <0>         0.0833
     27 H2         -0.5450    1.8219   -0.8730 H         1 <0>         0.0966
     28 H3         -0.5280    1.8123    0.9069 H         1 <0>         0.0947
     29 H4          1.2510   -2.5082   -7.7551 H         1 <0>         0.0716
     30 H5          1.2277   -1.2218   -8.9850 H         1 <0>         0.0851
     31 H6          2.4868   -1.0110   -6.2124 H         1 <0>         0.0676
     32 H7          3.3729   -1.2252   -7.7412 H         1 <0>         0.0698
     33 H8          3.3432    1.1578   -7.0561 H         1 <0>         0.0660
     34 H9          2.4494    0.9191   -8.5768 H         1 <0>         0.0666
     35 H10         1.2103    1.0954   -5.7929 H         1 <0>         0.0649
     36 H11         1.1870    2.3819   -7.0228 H         1 <0>         0.0730
     37 H12        -0.0488    0.8846   -8.5655 H         1 <0>         0.0842
     38 H13        -0.9348    1.0988   -7.0366 H         1 <0>         0.0760
     39 H14        -1.2331   -2.3831   -7.7579 H         1 <0>         0.3833
     40 H15         0.0673   -4.7180   -0.2073 H         1 <0>         0.4218
     41 H16         0.0666   -5.2217   -1.8101 H         1 <0>         0.4135
     42 H17        -0.4762   -2.1918    3.6000 H         1 <0>         0.1629
     43 H18        -0.2519   -0.5863    5.7504 H         1 <0>         0.1600
     44 H19         0.3729    1.8025    4.8743 H         1 <0>         0.2139
@<TRIPOS>BOND
     1    1    2 1
     2    1   26 1
     3    1   27 1
     4    1   28 1
     5    2   20 1
     6    2    3 1
     7    3    8 ar
     8    3    4 ar
     9    4    5 ar
    10    4   19 1
    11    5    6 ar
    12    5   18 1
    13    6    7 ar
    14    7    8 ar
    15    7    9 1
    16    9   10 3
    17   10   11 1
    18   11   16 1
    19   11   12 1
    20   11   17 1
    21   12   13 1
    22   12   29 1
    23   12   30 1
    24   13   14 1
    25   13   31 1
    26   13   32 1
    27   14   15 1
    28   14   33 1
    29   14   34 1
    30   15   16 1
    31   15   35 1
    32   15   36 1
    33   16   37 1
    34   16   38 1
    35   17   39 1
    36   18   40 1
    37   18   41 1
    38   19   20 2
    39   20   21 1
    40   21   25 1
    41   21   22 2
    42   22   23 1
    43   22   42 1
    44   23   24 2
    45   23   43 1
    46   24   25 1
    47   24   44 1
@<TRIPOS>MOLECULE
CHEMBL398272
   48    51     0     0     0
SMALL
USER_CHARGES

@<TRIPOS>ATOM
      1 C1         -0.0101    1.4637    0.0072 C.3       1 <0>        -0.0458
      2 N1          0.0088   -0.0052   -0.0003 N.4       1 <0>        -0.3894
      3 C2         -1.3697   -0.5123    0.0072 C.3       1 <0>        -0.0014
      4 C3         -1.3507   -2.0422   -0.0196 C.3       1 <0>         0.0267
      5 N2         -0.6205   -2.5409    1.1545 N.3       1 <0>        -0.5233
      6 C4          0.7542   -2.0212    1.1737 C.3       1 <0>         0.0173
      7 C5          0.7178   -0.4915    1.1907 C.3       1 <0>         0.0006
      8 C6         -0.6288   -4.0093    1.1950 C.3       1 <0>         0.0375
      9 C7         -0.0926   -4.4782    2.5230 C.2       1 <0>         0.5065
     10 O1          0.2615   -3.6690    3.3538 O.2       1 <0>        -0.4484
     11 N3         -0.0067   -5.7970    2.7874 N.am      1 <0>        -0.6516
     12 C8          0.5852   -6.2325    3.9685 C.ar      1 <0>         0.4177
     13 C9          0.7737   -7.5934    4.2032 C.ar      1 <0>        -0.2180
     14 C10         1.3723   -7.9844    5.4026 C.ar      1 <0>         0.2929
     15 N4          1.7412   -7.0485    6.2774 N.ar      1 <0>        -0.5101
     16 C11         1.5447   -5.7624    6.0176 C.ar      1 <0>         0.4420
     17 N5          0.9825   -5.3565    4.8840 N.ar      1 <0>        -0.4948
     18 C12         1.9662   -4.7561    7.0112 C.2       1 <0>         0.0117
     19 C13         1.8273   -3.4078    6.8909 C.2       1 <0>        -0.1197
     20 C14         2.3613   -2.8392    8.0624 C.2       1 <0>        -0.2285
     21 C15         2.7958   -3.8569    8.8334 C.2       1 <0>         0.0006
     22 O2          2.5504   -5.0127    8.1981 O.3       1 <0>        -0.1510
     23 C16         1.5936   -9.4160    5.6983 C.2       1 <0>         0.1053
     24 N6          1.3053  -10.4811    4.9636 N.2       1 <0>        -0.4707
     25 C17         1.5735  -11.6923    5.3845 C.2       1 <0>         0.0186
     26 C18         2.1603  -11.8732    6.6001 C.2       1 <0>        -0.1849
     27 S1          2.3291  -10.1764    7.1398 S.3       1 <0>         0.1050
     28 H1          1.0128    1.8403    0.0003 H         1 <0>         0.1245
     29 H2         -0.5361    1.8248   -0.8765 H         1 <0>         0.1242
     30 H3         -0.5209    1.8159    0.9034 H         1 <0>         0.1237
     31 H4         -1.8774   -0.1710    0.9093 H         1 <0>         0.1393
     32 H5         -1.8985   -0.1401   -0.8702 H         1 <0>         0.1379
     33 H6         -2.3732   -2.4191    0.0010 H         1 <0>         0.1263
     34 H7         -0.8550   -2.3839   -0.9282 H         1 <0>         0.0638
     35 H8          1.2672   -2.3827    2.0649 H         1 <0>         0.1395
     36 H9          1.2845   -2.3626    0.2847 H         1 <0>         0.0586
     37 H10         1.7365   -0.1038    1.1906 H         1 <0>         0.1365
     38 H11         0.1993   -0.1503    2.0867 H         1 <0>         0.1404
     39 H12        -1.6493   -4.3705    1.0672 H         1 <0>         0.1240
     40 H13        -0.0024   -4.3985    0.3924 H         1 <0>         0.0834
     41 H14        -0.3575   -6.4425    2.1540 H         1 <0>         0.4269
     42 H15         0.4637   -8.3281    3.4748 H         1 <0>         0.1655
     43 H16         1.3916   -2.8767    6.0575 H         1 <0>         0.1625
     44 H17         2.4137   -1.7868    8.2991 H         1 <0>         0.1573
     45 H18         3.2602   -3.7580    9.8034 H         1 <0>         0.2135
     46 H19         1.3294  -12.5455    4.7691 H         1 <0>         0.1778
     47 H20         2.4477  -12.7874    7.0982 H         1 <0>         0.2077
     48 H21         0.4822   -0.3310   -0.8296 H         1 <0>         0.4217
@<TRIPOS>BOND
     1    1    2 1
     2    1   28 1
     3    1   29 1
     4    1   30 1
     5    2    7 1
     6    2    3 1
     7    2   48 1
     8    3    4 1
     9    3   31 1
    10    3   32 1
    11    4    5 1
    12    4   33 1
    13    4   34 1
    14    5    6 1
    15    5    8 1
    16    6    7 1
    17    6   35 1
    18    6   36 1
    19    7   37 1
    20    7   38 1
    21    8    9 1
    22    8   39 1
    23    8   40 1
    24    9   10 2
    25    9   11 am
    26   11   12 1
    27   11   41 1
    28   12   17 ar
    29   12   13 ar
    30   13   14 ar
    31   13   42 1
    32   14   15 ar
    33   14   23 1
    34   15   16 ar
    35   16   17 ar
    36   16   18 1
    37   18   22 1
    38   18   19 2
    39   19   20 1
    40   19   43 1
    41   20   21 2
    42   20   44 1
    43   21   22 1
    44   21   45 1
    45   23   27 1
    46   23   24 2
    47   24   25 1
    48   25   26 2
    49   25   46 1
    50   26   27 1
    51   26   47 1
@<TRIPOS>MOLECULE
CHEMBL1171164
   58    61     0     0     0
SMALL
USER_CHARGES

@<TRIPOS>ATOM
      1 C1         -0.0143    1.5242    0.0036 C.3       1 <0>        -0.1725
      2 C2          0.0016   -0.0057    0.0018 C.3       1 <0>         0.1104
      3 N1          0.7109   -0.4881    1.1893 N.am      1 <0>        -0.5717
      4 C3          0.0260   -0.6340    2.4041 C.ar      1 <0>         0.1440
      5 C4         -0.5888   -1.8381    2.7194 C.ar      1 <0>        -0.0518
      6 C5         -1.2606   -1.9609    3.9267 C.ar      1 <0>        -0.2006
      7 C6         -1.3321   -0.9171    4.8183 C.ar      1 <0>         0.1933
      8 C7         -0.7162    0.3278    4.5293 C.ar      1 <0>         0.0872
      9 C8         -0.0366    0.4156    3.2959 C.ar      1 <0>        -0.1173
     10 S1          0.5825    2.0807    3.3219 S.3       1 <0>         0.0355
     11 C9         -0.0716    2.5382    4.9210 C.2       1 <0>         0.3643
     12 N2         -0.6941    1.4437    5.2914 N.2       1 <0>        -0.4853
     13 N3          0.0390    3.7448    5.5925 N.am      1 <0>        -0.6141
     14 C10        -0.5309    3.8963    6.8044 C.2       1 <0>         0.5937
     15 O1         -1.1422    2.9739    7.3084 O.2       1 <0>        -0.4720
     16 C11        -0.4132    5.1800    7.5188 C.2       1 <0>        -0.2958
     17 C12         0.2563    6.3369    7.0604 C.2       1 <0>         0.0825
     18 N4          0.1364    7.2610    7.9732 N.2       1 <0>        -0.2799
     19 N5         -0.6044    6.7475    9.0436 N.pl3     1 <0>        -0.3550
     20 C13        -0.9414    5.4795    8.7589 C.2       1 <0>         0.1433
     21 C14        -0.9571    7.4730   10.2665 C.3       1 <0>         0.1713
     22 C15         0.2947    8.0116   10.9098 C.ar      1 <0>        -0.1180
     23 C16         0.9825    7.2453   11.8324 C.ar      1 <0>        -0.0653
     24 C17         2.1306    7.7394   12.4224 C.ar      1 <0>        -0.1214
     25 C18         2.5915    8.9997   12.0896 C.ar      1 <0>        -0.0585
     26 C19         1.9043    9.7654   11.1667 C.ar      1 <0>        -0.1845
     27 C20         0.7583    9.2695   10.5733 C.ar      1 <0>        -0.0310
     28 C21         2.4064   11.1393   10.8044 C.3       1 <0>         0.5087
     29 F1          3.5727   11.4150   11.5262 F         1 <0>        -0.1761
     30 F2          2.6837   11.1881    9.4340 F         1 <0>        -0.1734
     31 F3          1.4290   12.0903   11.1165 F         1 <0>        -0.1754
     32 O2         -2.0014   -1.0795    5.9911 O.3       1 <0>        -0.2907
     33 C22        -2.6008   -2.3556    6.2247 C.3       1 <0>         0.0197
     34 C23         2.0219   -0.7917    1.1142 C.2       1 <0>         0.5217
     35 O3          2.6363   -0.5780    0.0904 O.2       1 <0>        -0.5309
     36 C24         2.7245   -1.3968    2.3022 C.3       1 <0>        -0.1777
     37 H1          1.0095    1.8981   -0.0079 H         1 <0>         0.0611
     38 H2         -0.5421    1.8831   -0.8800 H         1 <0>         0.0704
     39 H3         -0.5215    1.8812    0.8998 H         1 <0>         0.0589
     40 H4         -1.0222   -0.3797    0.0132 H         1 <0>         0.0786
     41 H5          0.5088   -0.3628   -0.8945 H         1 <0>         0.0920
     42 H6         -0.5448   -2.6700    2.0321 H         1 <0>         0.1470
     43 H7         -1.7388   -2.8978    4.1717 H         1 <0>         0.1475
     44 H8          0.5267    4.4807    5.1905 H         1 <0>         0.4276
     45 H9          0.7764    6.4382    6.1193 H         1 <0>         0.1912
     46 H10        -1.5177    4.8150    9.3856 H         1 <0>         0.1929
     47 H11        -1.6232    8.2996   10.0193 H         1 <0>         0.1060
     48 H12        -1.4590    6.7965   10.9583 H         1 <0>         0.1174
     49 H13         0.6225    6.2608   12.0923 H         1 <0>         0.1342
     50 H14         2.6675    7.1411   13.1436 H         1 <0>         0.1399
     51 H15         3.4882    9.3860   12.5512 H         1 <0>         0.1421
     52 H16         0.2234    9.8663    9.8493 H         1 <0>         0.1377
     53 H17        -1.8295   -3.1258    6.2185 H         1 <0>         0.0602
     54 H18        -3.1012   -2.3502    7.1930 H         1 <0>         0.1052
     55 H19        -3.3288   -2.5640    5.4407 H         1 <0>         0.0600
     56 H20         1.9988   -1.5967    3.0905 H         1 <0>         0.0789
     57 H21         3.2039   -2.3294    2.0047 H         1 <0>         0.0985
     58 H22         3.4791   -0.7018    2.6708 H         1 <0>         0.0962
@<TRIPOS>BOND
     1    1    2 1
     2    1   37 1
     3    1   38 1
     4    1   39 1
     5    2    3 1
     6    2   40 1
     7    2   41 1
     8    3    4 1
     9    3   34 am
    10    4    9 ar
    11    4    5 ar
    12    5    6 ar
    13    5   42 1
    14    6    7 ar
    15    6   43 1
    16    7    8 ar
    17    7   32 1
    18    8   12 1
    19    8    9 ar
    20    9   10 1
    21   10   11 1
    22   11   12 2
    23   11   13 1
    24   13   14 am
    25   13   44 1
    26   14   15 2
    27   14   16 1
    28   16   20 2
    29   16   17 1
    30   17   18 2
    31   17   45 1
    32   18   19 1
    33   19   20 1
    34   19   21 1
    35   20   46 1
    36   21   22 1
    37   21   47 1
    38   21   48 1
    39   22   27 ar
    40   22   23 ar
    41   23   24 ar
    42   23   49 1
    43   24   25 ar
    44   24   50 1
    45   25   26 ar
    46   25   51 1
    47   26   27 ar
    48   26   28 1
    49   27   52 1
    50   28   29 1
    51   28   30 1
    52   28   31 1
    53   32   33 1
    54   33   53 1
    55   33   54 1
    56   33   55 1
    57   34   35 2
    58   34   36 1
    59   36   56 1
    60   36   57 1
    61   36   58 1
@<TRIPOS>MOLECULE
CHEMBL595132
   41    43     0     0     0
SMALL
USER_CHARGES

@<TRIPOS>ATOM
      1 C1         -0.0184    1.5028    0.0103 C.3       1 <0>        -0.1192
      2 C2          0.0021   -0.0041    0.0020 C.ar      1 <0>        -0.1143
      3 C3          0.0059   -0.6996   -1.1977 C.ar      1 <0>        -0.0786
      4 C4          0.0249   -2.0852   -1.1570 C.ar      1 <0>        -0.1581
      5 C5          0.0392   -2.7228    0.0694 C.ar      1 <0>         0.0936
      6 N1          0.0346   -2.0288    1.1905 N.ar      1 <0>        -0.4643
      7 C6          0.0229   -0.7100    1.1897 C.ar      1 <0>         0.1005
      8 C7          0.0258    0.0356    2.4993 C.3       1 <0>         0.1692
      9 N2         -1.3544    0.2589    2.9371 N.am      1 <0>        -0.6997
     10 C8         -1.5981    0.9112    4.0910 C.2       1 <0>         0.5751
     11 O1         -0.6734    1.3140    4.7681 O.2       1 <0>        -0.5171
     12 C9         -2.9966    1.1375    4.5346 C.ar      1 <0>         0.1812
     13 C10        -3.2597    1.8154    5.7224 C.ar      1 <0>        -0.2222
     14 C11        -4.5943    2.0036    6.0976 C.ar      1 <0>         0.2703
     15 N3         -5.5580    1.5318    5.3122 N.ar      1 <0>        -0.5518
     16 C12        -5.2667    0.8921    4.1898 C.ar      1 <0>         0.5761
     17 N4         -4.0170    0.7000    3.7997 N.ar      1 <0>        -0.5563
     18 N5         -6.2989    0.4156    3.3997 N.pl3     1 <0>        -0.8184
     19 C13        -4.9293    2.7183    7.3529 C.ar      1 <0>        -0.0674
     20 C14        -3.9132    3.2144    8.1680 C.ar      1 <0>        -0.0853
     21 C15        -4.2309    3.8787    9.3352 C.ar      1 <0>        -0.1249
     22 C16        -5.5547    4.0527    9.6968 C.ar      1 <0>        -0.0966
     23 C17        -6.5673    3.5625    8.8918 C.ar      1 <0>        -0.1292
     24 C18        -6.2617    2.9016    7.7195 C.ar      1 <0>        -0.0679
     25 H1          1.0042    1.8801    0.0026 H         1 <0>         0.0790
     26 H2         -0.5455    1.8639   -0.8728 H         1 <0>         0.0728
     27 H3         -0.5286    1.8543    0.9071 H         1 <0>         0.0733
     28 H4         -0.0059   -0.1743   -2.1413 H         1 <0>         0.1379
     29 H5          0.0281   -2.6591   -2.0718 H         1 <0>         0.1387
     30 H6          0.0541   -3.8020    0.1097 H         1 <0>         0.1595
     31 H7          0.5547   -0.5512    3.2504 H         1 <0>         0.0915
     32 H8          0.5257    0.9955    2.3699 H         1 <0>         0.0916
     33 H9         -2.0927   -0.0627    2.3965 H         1 <0>         0.4133
     34 H10        -2.4538    2.1861    6.3385 H         1 <0>         0.1602
     35 H11        -7.2201    0.5522    3.6710 H         1 <0>         0.4170
     36 H12        -6.1008   -0.0548    2.5749 H         1 <0>         0.4163
     37 H13        -2.8792    3.0789    7.8869 H         1 <0>         0.1324
     38 H14        -3.4444    4.2632    9.9677 H         1 <0>         0.1306
     39 H15        -5.7987    4.5729   10.6113 H         1 <0>         0.1271
     40 H16        -7.5991    3.7009    9.1793 H         1 <0>         0.1285
     41 H17        -7.0531    2.5232    7.0895 H         1 <0>         0.1358
@<TRIPOS>BOND
     1    1    2 1
     2    1   25 1
     3    1   26 1
     4    1   27 1
     5    2    7 ar
     6    2    3 ar
     7    3    4 ar
     8    3   28 1
     9    4    5 ar
    10    4   29 1
    11    5    6 ar
    12    5   30 1
    13    6    7 ar
    14    7    8 1
    15    8    9 1
    16    8   31 1
    17    8   32 1
    18    9   10 am
    19    9   33 1
    20   10   11 2
    21   10   12 1
    22   12   17 ar
    23   12   13 ar
    24   13   14 ar
    25   13   34 1
    26   14   15 ar
    27   14   19 1
    28   15   16 ar
    29   16   17 ar
    30   16   18 1
    31   18   35 1
    32   18   36 1
    33   19   24 ar
    34   19   20 ar
    35   20   21 ar
    36   20   37 1
    37   21   22 ar
    38   21   38 1
    39   22   23 ar
    40   22   39 1
    41   23   24 ar
    42   23   40 1
    43   24   41 1
@<TRIPOS>MOLECULE
CHEMBL59084
   66    68     0     0     0
SMALL
USER_CHARGES

@<TRIPOS>ATOM
      1 C1         -0.0187    1.5258    0.0104 C.3       1 <0>        -0.1472
      2 C2          0.0021   -0.0041    0.0020 C.3       1 <0>        -0.1385
      3 C3         -1.4333   -0.5336    0.0129 C.3       1 <0>         0.1190
      4 N1         -1.4134   -1.9985    0.0048 N.am      1 <0>        -0.5089
      5 C4         -1.3926   -2.6971    1.2022 C.2       1 <0>         0.3304
      6 C5         -1.3740   -4.0878    1.1662 C.2       1 <0>        -0.1423
      7 C6         -1.3769   -4.7431   -0.0825 C.2       1 <0>         0.5924
      8 O1         -1.3613   -5.9599   -0.1397 O.2       1 <0>        -0.5083
      9 N2         -1.3976   -4.0074   -1.2132 N.am      1 <0>        -0.5477
     10 C7         -1.4210   -2.6643   -1.1652 C.2       1 <0>         0.7071
     11 O2         -1.4448   -2.0346   -2.2051 O.2       1 <0>        -0.5250
     12 C8         -1.4003   -4.6827   -2.5132 C.3       1 <0>         0.1129
     13 C9         -2.8435   -4.9380   -2.9524 C.3       1 <0>        -0.1375
     14 C10        -2.8462   -5.6433   -4.3101 C.3       1 <0>        -0.1480
     15 N3         -1.3557   -4.5135    2.4813 N.pl3     1 <0>        -0.5147
     16 C11        -1.3636   -3.3941    3.2571 C.2       1 <0>         0.3404
     17 N4         -1.3855   -2.3271    2.4822 N.2       1 <0>        -0.4838
     18 H1         -1.3406   -5.4324    2.7917 H         1 <0>         0.4367
     19 C12        -1.3506   -3.3777    4.7338 C.ar      1 <0>        -0.0661
     20 C13        -1.3225   -4.5782    5.4473 C.ar      1 <0>        -0.0542
     21 C14        -1.3105   -4.5586    6.8248 C.ar      1 <0>        -0.1389
     22 C15        -1.3267   -3.3469    7.5043 C.ar      1 <0>         0.1460
     23 C16        -1.3551   -2.1506    6.7984 C.ar      1 <0>        -0.2099
     24 C17        -1.3606   -2.1615    5.4207 C.ar      1 <0>        -0.0206
     25 O3         -1.3153   -3.3318    8.8621 O.3       1 <0>        -0.2868
     26 C18        -1.3331   -2.0517    9.4968 C.3       1 <0>         0.0401
     27 C19        -1.3169   -2.2325   10.9929 C.2       1 <0>         0.5236
     28 O4         -1.2924   -3.3478   11.4687 O.2       1 <0>        -0.4958
     29 N5         -1.3296   -1.1548   11.8021 N.am      1 <0>        -0.7320
     30 C20        -1.3138   -1.3305   13.2564 C.3       1 <0>         0.0960
     31 C21        -1.3329    0.0401   13.9360 C.3       1 <0>        -0.0229
     32 N6         -1.3171   -0.1361   15.3943 N.4       1 <0>        -0.3832
     33 C22        -0.0468   -0.7530   15.7992 C.3       1 <0>        -0.0563
     34 C23        -1.4560    1.1724   16.0473 C.3       1 <0>        -0.0468
     35 H2          1.0039    1.9031    0.0027 H         1 <0>         0.0610
     36 H3         -0.5459    1.8868   -0.8726 H         1 <0>         0.0600
     37 H4         -0.5289    1.8773    0.9072 H         1 <0>         0.0576
     38 H5          0.5123   -0.3556   -0.8948 H         1 <0>         0.0691
     39 H6          0.5293   -0.3651    0.8851 H         1 <0>         0.0671
     40 H7         -1.9435   -0.1821    0.9097 H         1 <0>         0.0979
     41 H8         -1.9605   -0.1726   -0.8702 H         1 <0>         0.1015
     42 H9         -0.9020   -4.0534   -3.2506 H         1 <0>         0.1044
     43 H10        -0.8724   -5.6328   -2.4302 H         1 <0>         0.1024
     44 H11        -3.3418   -5.5673   -2.2150 H         1 <0>         0.0670
     45 H12        -3.3714   -3.9880   -3.0355 H         1 <0>         0.0694
     46 H13        -3.8744   -5.8251   -4.6230 H         1 <0>         0.0622
     47 H14        -2.3479   -5.0140   -5.0475 H         1 <0>         0.0604
     48 H15        -2.3183   -6.5933   -4.2271 H         1 <0>         0.0593
     49 H16        -1.3106   -5.5206    4.9198 H         1 <0>         0.1343
     50 H17        -1.2888   -5.4864    7.3772 H         1 <0>         0.1444
     51 H18        -1.3684   -1.2108    7.3303 H         1 <0>         0.1367
     52 H19        -1.3774   -1.2310    4.8727 H         1 <0>         0.1477
     53 H20        -0.4560   -1.4818    9.1902 H         1 <0>         0.1025
     54 H21        -2.2356   -1.5143    9.2056 H         1 <0>         0.1026
     55 H22        -1.3491   -0.2627   11.4216 H         1 <0>         0.4107
     56 H23        -2.1909   -1.9004   13.5631 H         1 <0>         0.0922
     57 H24        -0.4113   -1.8679   13.5477 H         1 <0>         0.0925
     58 H25        -0.4558    0.6100   13.6294 H         1 <0>         0.1386
     59 H26        -2.2354    0.5775   13.6448 H         1 <0>         0.1397
     60 H27         0.7808   -0.1089   15.5021 H         1 <0>         0.1252
     61 H28        -0.0351   -0.8837   16.8813 H         1 <0>         0.1294
     62 H29         0.0563   -1.7239   15.3148 H         1 <0>         0.1262
     63 H30        -2.3986    1.6301   15.7468 H         1 <0>         0.1254
     64 H31        -1.4443    1.0417   17.1293 H         1 <0>         0.1286
     65 H32        -0.6284    1.8165   15.7501 H         1 <0>         0.1240
     66 H33        -2.0832   -0.7323   15.6694 H         1 <0>         0.4308
@<TRIPOS>BOND
     1    1    2 1
     2    1   35 1
     3    1   36 1
     4    1   37 1
     5    2    3 1
     6    2   38 1
     7    2   39 1
     8    3   40 1
     9    3   41 1
    10    3    4 1
    11    4    5 1
    12    4   10 am
    13    5   17 1
    14    5    6 2
    15    6    7 1
    16    6   15 1
    17    7    9 am
    18    7    8 2
    19    9   10 am
    20    9   12 1
    21   10   11 2
    22   12   13 1
    23   12   42 1
    24   12   43 1
    25   13   14 1
    26   13   44 1
    27   13   45 1
    28   14   46 1
    29   14   47 1
    30   14   48 1
    31   15   18 1
    32   15   16 1
    33   16   19 1
    34   16   17 2
    35   19   24 ar
    36   19   20 ar
    37   20   21 ar
    38   20   49 1
    39   21   22 ar
    40   21   50 1
    41   22   23 ar
    42   22   25 1
    43   23   24 ar
    44   23   51 1
    45   24   52 1
    46   25   26 1
    47   26   27 1
    48   26   53 1
    49   26   54 1
    50   27   28 2
    51   27   29 am
    52   29   30 1
    53   29   55 1
    54   30   31 1
    55   30   56 1
    56   30   57 1
    57   31   32 1
    58   31   58 1
    59   31   59 1
    60   32   33 1
    61   32   34 1
    62   32   66 1
    63   33   60 1
    64   33   61 1
    65   33   62 1
    66   34   63 1
    67   34   64 1
    68   34   65 1
@<TRIPOS>MOLECULE
CHEMBL1086846
   29    32     0     0     0
SMALL
USER_CHARGES

@<TRIPOS>ATOM
      1 C1         -0.0167    1.3824    0.0096 C.ar      1 <0>        -0.0947
      2 C2          1.1645    2.0973    0.0022 C.ar      1 <0>        -0.1039
      3 C3          2.3817    1.4340   -0.0129 C.ar      1 <0>        -0.0507
      4 C4          2.4138    0.0464   -0.0207 C.ar      1 <0>        -0.1451
      5 C5          1.2127   -0.6822   -0.0131 C.ar      1 <0>        -0.0402
      6 C6          0.0021   -0.0041    0.0020 C.ar      1 <0>        -0.0674
      7 C7          1.5400   -2.1306   -0.0231 C.ar      1 <0>         0.3107
      8 C8          2.9423   -2.2719   -0.0368 C.ar      1 <0>        -0.3514
      9 C9          3.4879   -3.5692   -0.0481 C.ar      1 <0>         0.3878
     10 N1          2.6517   -4.6122   -0.0454 N.ar      1 <0>        -0.5674
     11 C10         1.3418   -4.4312   -0.0324 C.ar      1 <0>         0.6056
     12 N2          0.7890   -3.2215   -0.0210 N.ar      1 <0>        -0.5629
     13 N3          0.5184   -5.5378   -0.0306 N.pl3     1 <0>        -0.8036
     14 C11         4.9452   -3.7728   -0.0631 C.2       1 <0>        -0.2075
     15 C12         5.6927   -4.7713    0.5368 C.2       1 <0>        -0.0821
     16 C13         7.0539   -4.6977    0.3435 C.2       1 <0>        -0.1876
     17 C14         7.5589   -3.6837   -0.3987 C.2       1 <0>        -0.2475
     18 S1          6.2071   -2.8021   -0.8651 S.3       1 <0>         0.2861
     19 C15         3.5354   -0.9269   -0.0358 C.2       1 <0>         0.4619
     20 O1          4.7213   -0.6612   -0.0455 O.2       1 <0>        -0.4091
     21 H1         -0.9610    1.9063    0.0260 H         1 <0>         0.1399
     22 H2          1.1400    3.1770    0.0079 H         1 <0>         0.1404
     23 H3          3.3038    1.9962   -0.0191 H         1 <0>         0.1410
     24 H4         -0.9259   -0.5565    0.0082 H         1 <0>         0.1397
     25 H5          0.9027   -6.4284   -0.0387 H         1 <0>         0.4211
     26 H6         -0.4451   -5.4254   -0.0211 H         1 <0>         0.4201
     27 H7          5.2372   -5.5581    1.1198 H         1 <0>         0.1441
     28 H8          7.7096   -5.4378    0.7779 H         1 <0>         0.1350
     29 H9          8.5935   -3.4891   -0.6397 H         1 <0>         0.1879
@<TRIPOS>BOND
     1    1    6 ar
     2    1    2 ar
     3    1   21 1
     4    2    3 ar
     5    2   22 1
     6    3    4 ar
     7    3   23 1
     8    4   19 1
     9    4    5 ar
    10    5    6 ar
    11    5    7 1
    12    6   24 1
    13    7   12 ar
    14    7    8 ar
    15    8    9 ar
    16    8   19 1
    17    9   10 ar
    18    9   14 1
    19   10   11 ar
    20   11   12 ar
    21   11   13 1
    22   13   25 1
    23   13   26 1
    24   14   18 1
    25   14   15 2
    26   15   16 1
    27   15   27 1
    28   16   17 2
    29   16   28 1
    30   17   18 1
    31   17   29 1
    32   19   20 2
@<TRIPOS>MOLECULE
CHEMBL77691
   55    57     0     0     0
SMALL
USER_CHARGES

@<TRIPOS>ATOM
      1 C1         -0.0187    1.5258    0.0104 C.3       1 <0>        -0.1671
      2 C2          0.0021   -0.0041    0.0020 C.3       1 <0>         0.1160
      3 N1          0.7106   -0.4894    1.1889 N.am      1 <0>        -0.5086
      4 C3          2.0811   -0.6960    1.1410 C.2       1 <0>         0.3271
      5 C4          2.7293   -1.1578    2.2839 C.2       1 <0>        -0.1534
      6 C5          1.9763   -1.3996    3.4501 C.2       1 <0>         0.5950
      7 O1          2.5212   -1.8034    4.4623 O.2       1 <0>        -0.5147
      8 N2          0.6456   -1.1787    3.4338 N.am      1 <0>        -0.5494
      9 C6          0.0314   -0.7289    2.3262 C.2       1 <0>         0.7080
     10 O2         -1.1692   -0.5373    2.3508 O.2       1 <0>        -0.5321
     11 C7         -0.1416   -1.4286    4.6438 C.3       1 <0>         0.1108
     12 C8         -0.1949   -0.1549    5.4897 C.3       1 <0>        -0.1665
     13 N3          4.0689   -1.2730    1.9569 N.pl3     1 <0>        -0.4112
     14 C9          4.1896   -0.8855    0.6525 C.2       1 <0>         0.3291
     15 N4          2.9977   -0.5472    0.1878 N.2       1 <0>        -0.4897
     16 C10         5.4382   -0.8502   -0.1095 C.2       1 <0>        -0.1340
     17 C11         5.4315   -0.4471   -1.3976 C.2       1 <0>        -0.0066
     18 C12         6.6851   -0.4117   -2.1627 C.ar      1 <0>        -0.1292
     19 C13         7.8872   -0.8006   -1.5608 C.ar      1 <0>        -0.0525
     20 C14         9.0592   -0.7657   -2.2816 C.ar      1 <0>        -0.2117
     21 C15         9.0540   -0.3449   -3.6075 C.ar      1 <0>         0.1552
     22 C16         7.8682    0.0434   -4.2142 C.ar      1 <0>        -0.1384
     23 C17         6.6818    0.0072   -3.5032 C.ar      1 <0>         0.1593
     24 O3          5.5198    0.3806   -4.0973 O.3       1 <0>        -0.3281
     25 C18         5.1588    1.7602   -4.0064 C.3       1 <0>         0.0333
     26 C19         7.8713    0.4984   -5.6508 C.3       1 <0>        -0.1020
     27 O4         10.2149   -0.3136   -4.3111 O.3       1 <0>        -0.3085
     28 C20        11.3997   -0.7258   -3.6267 C.3       1 <0>         0.0243
     29 C21         5.1486   -1.7234    2.8388 C.3       1 <0>         0.0703
     30 H1          1.0039    1.9031    0.0027 H         1 <0>         0.0607
     31 H2         -0.5459    1.8868   -0.8726 H         1 <0>         0.0779
     32 H3         -0.5289    1.8773    0.9072 H         1 <0>         0.0609
     33 H4         -1.0205   -0.3814    0.0098 H         1 <0>         0.0999
     34 H5          0.5123   -0.3556   -0.8948 H         1 <0>         0.0985
     35 H6         -1.1536   -1.7221    4.3647 H         1 <0>         0.1027
     36 H7          0.3227   -2.2286    5.2205 H         1 <0>         0.1010
     37 H8          0.8170    0.1386    5.7688 H         1 <0>         0.0600
     38 H9         -0.6592    0.6451    4.9130 H         1 <0>         0.0622
     39 H10        -0.7807   -0.3408    6.3899 H         1 <0>         0.0793
     40 H11         6.3651   -1.1467    0.3587 H         1 <0>         0.1397
     41 H12         4.5045   -0.1507   -1.8658 H         1 <0>         0.1424
     42 H13         7.8953   -1.1276   -0.5315 H         1 <0>         0.1347
     43 H14         9.9863   -1.0657   -1.8160 H         1 <0>         0.1361
     44 H15         5.9340    2.3700   -4.4703 H         1 <0>         0.0502
     45 H16         4.2120    1.9227   -4.5215 H         1 <0>         0.1002
     46 H17         5.0549    2.0403   -2.9581 H         1 <0>         0.0513
     47 H18         7.7122   -0.3596   -6.3041 H         1 <0>         0.0731
     48 H19         7.0729    1.2245   -5.8037 H         1 <0>         0.0674
     49 H20         8.8311    0.9594   -5.8839 H         1 <0>         0.0714
     50 H21        11.5632   -0.0813   -2.7630 H         1 <0>         0.0585
     51 H22        11.2867   -1.7576   -3.2939 H         1 <0>         0.0590
     52 H23        12.2529   -0.6529   -4.3011 H         1 <0>         0.1041
     53 H24         5.2591   -2.8045    2.7550 H         1 <0>         0.0875
     54 H25         6.0809   -1.2392    2.5482 H         1 <0>         0.0947
     55 H26         4.9090   -1.4614    3.8694 H         1 <0>         0.1021
@<TRIPOS>BOND
     1    1    2 1
     2    1   30 1
     3    1   31 1
     4    1   32 1
     5    2    3 1
     6    2   33 1
     7    2   34 1
     8    3    9 am
     9    3    4 1
    10    4   15 1
    11    4    5 2
    12    5    6 1
    13    5   13 1
    14    6    7 2
    15    6    8 am
    16    8    9 am
    17    8   11 1
    18    9   10 2
    19   11   12 1
    20   11   35 1
    21   11   36 1
    22   12   37 1
    23   12   38 1
    24   12   39 1
    25   13   14 1
    26   13   29 1
    27   14   15 2
    28   14   16 1
    29   16   17 2
    30   16   40 1
    31   17   18 1
    32   17   41 1
    33   18   23 ar
    34   18   19 ar
    35   19   20 ar
    36   19   42 1
    37   20   21 ar
    38   20   43 1
    39   21   22 ar
    40   21   27 1
    41   22   23 ar
    42   22   26 1
    43   23   24 1
    44   24   25 1
    45   25   44 1
    46   25   45 1
    47   25   46 1
    48   26   47 1
    49   26   48 1
    50   26   49 1
    51   27   28 1
    52   28   50 1
    53   28   51 1
    54   28   52 1
    55   29   53 1
    56   29   54 1
    57   29   55 1
@<TRIPOS>MOLECULE
CHEMBL571672
   35    37     0     0     0
SMALL
USER_CHARGES

@<TRIPOS>ATOM
      1 C1         -0.0167    1.3776    0.0096 C.ar      1 <0>        -0.1735
      2 C2          1.1849    2.0698    0.0019 C.ar      1 <0>        -0.0539
      3 C3          2.3651    1.3426   -0.0133 C.ar      1 <0>        -0.1655
      4 C4          2.3054   -0.0383   -0.0202 C.ar      1 <0>         0.1212
      5 N1          1.1443   -0.6632   -0.0129 N.ar      1 <0>        -0.4845
      6 C5          0.0021   -0.0041    0.0020 C.ar      1 <0>         0.1080
      7 C6          3.6964    2.0488   -0.0227 C.3       1 <0>         0.1641
      8 N2          4.1412    2.2707    1.3554 N.am      1 <0>        -0.7046
      9 C7          5.3142    2.8904    1.5933 C.2       1 <0>         0.5744
     10 O1          6.0026    3.2650    0.6651 O.2       1 <0>        -0.5147
     11 C8          5.7649    3.1152    2.9895 C.ar      1 <0>         0.1822
     12 C9          6.9711    3.7589    3.2458 C.ar      1 <0>        -0.2138
     13 C10         7.3532    3.9475    4.5822 C.ar      1 <0>         0.3055
     14 N3          6.5518    3.5061    5.5512 N.ar      1 <0>        -0.5448
     15 C11         5.4115    2.8981    5.2631 C.ar      1 <0>         0.5815
     16 N4          5.0168    2.7079    4.0144 N.ar      1 <0>        -0.5534
     17 N5          4.6065    2.4533    6.2979 N.pl3     1 <0>        -0.8158
     18 C12         8.6224    4.6236    4.9100 C.2       1 <0>        -0.0060
     19 C13         9.1022    4.8594    6.1621 C.2       1 <0>        -0.1257
     20 C14        10.3333    5.5228    6.0059 C.2       1 <0>        -0.2242
     21 C15        10.5440    5.6589    4.6805 C.2       1 <0>        -0.0034
     22 O2          9.5118    5.1102    4.0222 O.3       1 <0>        -0.1620
     23 H1         -0.9552    1.9117    0.0259 H         1 <0>         0.1391
     24 H2          1.2009    3.1496    0.0072 H         1 <0>         0.1374
     25 H3          3.2203   -0.6121   -0.0320 H         1 <0>         0.1576
     26 H4         -0.9294   -0.5505    0.0083 H         1 <0>         0.1589
     27 H5          4.4293    1.4355   -0.5468 H         1 <0>         0.0865
     28 H6          3.5953    3.0079   -0.5308 H         1 <0>         0.0847
     29 H7          3.5916    1.9716    2.0965 H         1 <0>         0.4136
     30 H8          7.5975    4.1042    2.4367 H         1 <0>         0.1632
     31 H9          4.8808    2.5889    7.2184 H         1 <0>         0.4182
     32 H10         3.7682    2.0062    6.1025 H         1 <0>         0.4180
     33 H11         8.6292    4.5899    7.0949 H         1 <0>         0.1605
     34 H12        10.9860    5.8598    6.7976 H         1 <0>         0.1578
     35 H13        11.4031    6.1286    4.2246 H         1 <0>         0.2134
@<TRIPOS>BOND
     1    1    6 ar
     2    1    2 ar
     3    1   23 1
     4    2    3 ar
     5    2   24 1
     6    3    4 ar
     7    3    7 1
     8    4    5 ar
     9    4   25 1
    10    5    6 ar
    11    6   26 1
    12    7    8 1
    13    7   27 1
    14    7   28 1
    15    8    9 am
    16    8   29 1
    17    9   10 2
    18    9   11 1
    19   11   16 ar
    20   11   12 ar
    21   12   13 ar
    22   12   30 1
    23   13   14 ar
    24   13   18 1
    25   14   15 ar
    26   15   16 ar
    27   15   17 1
    28   17   31 1
    29   17   32 1
    30   18   22 1
    31   18   19 2
    32   19   20 1
    33   19   33 1
    34   20   21 2
    35   20   34 1
    36   21   22 1
    37   21   35 1
@<TRIPOS>MOLECULE
CHEMBL610443
   52    56     0     0     0
SMALL
USER_CHARGES

@<TRIPOS>ATOM
      1 C1         -0.0164    1.3601    0.0095 C.2       1 <0>         0.2697
      2 N1          1.2003    1.8207    0.0004 N.2       1 <0>        -0.4591
      3 C2          2.0748    0.7852   -0.0135 C.ar      1 <0>        -0.1385
      4 C3          3.4769    0.6781   -0.0279 C.ar      1 <0>         0.5368
      5 N2          4.0212   -0.5330   -0.0400 N.ar      1 <0>        -0.5933
      6 C4          3.2659   -1.6248   -0.0386 C.ar      1 <0>         0.6472
      7 N3          1.9437   -1.5689   -0.0257 N.ar      1 <0>        -0.6107
      8 C5          1.3165   -0.3972   -0.0126 C.ar      1 <0>         0.3503
      9 N4          0.0021   -0.0041    0.0020 N.pl3     1 <0>        -0.4652
     10 C6         -1.1669   -0.8870    0.0089 C.3       1 <0>         0.3154
     11 C7         -1.5288   -1.2881   -1.4374 C.3       1 <0>         0.0768
     12 H1         -1.1658   -2.2905   -1.6643 H         1 <0>         0.0966
     13 C8         -3.0813   -1.2555   -1.4098 C.3       1 <0>         0.0471
     14 H2         -3.4870   -2.1904   -1.0232 H         1 <0>         0.0925
     15 C9         -3.3334   -0.0872   -0.4237 C.3       1 <0>         0.0516
     16 H3         -3.2629    0.8684   -0.9433 H         1 <0>         0.0987
     17 O1         -2.2939   -0.1969    0.5615 O.3       1 <0>        -0.3460
     18 C10        -4.7077   -0.2336    0.2327 C.3       1 <0>         0.0780
     19 O2         -4.9704    0.9103    1.0480 O.3       1 <0>        -0.5625
     20 O3         -3.6133   -0.9627   -2.7033 O.3       1 <0>        -0.5427
     21 O4         -1.0127   -0.3389   -2.3726 O.3       1 <0>        -0.5329
     22 N5          3.8829   -2.8651   -0.0516 N.pl3     1 <0>        -0.5439
     23 N6          5.2812   -2.9518   -0.0658 N.2       1 <0>        -0.2058
     24 C11         5.8602   -4.1157   -0.0780 C.2       1 <0>         0.1081
     25 C12         7.3242   -4.2064   -0.0929 C.2       1 <0>        -0.1148
     26 C13         8.1769   -3.1726   -0.0897 C.2       1 <0>        -0.0984
     27 C14         9.6043   -3.7333   -0.1094 C.3       1 <0>        -0.0825
     28 C15         9.7569   -4.3365   -1.5417 C.3       1 <0>        -0.1200
     29 C16         8.7719   -5.5308   -1.5454 C.3       1 <0>        -0.1221
     30 C17         8.1463   -5.5011   -0.1081 C.3       1 <0>        -0.0576
     31 C18         9.3907   -5.0449    0.7308 C.3       1 <0>        -0.1195
     32 N7          4.2722    1.8103   -0.0299 N.pl3     1 <0>        -0.8149
     33 H4         -0.9091    1.9677    0.0254 H         1 <0>         0.2139
     34 H5         -0.9535   -1.7784    0.5988 H         1 <0>         0.1339
     35 H6         -5.4727   -0.3127   -0.5397 H         1 <0>         0.0634
     36 H7         -4.7213   -1.1312    0.8509 H         1 <0>         0.0587
     37 H8         -5.8269    0.8855    1.4962 H         1 <0>         0.3855
     38 H9         -4.5794   -0.9322   -2.7335 H         1 <0>         0.3901
     39 H10        -1.2137   -0.5467   -3.2954 H         1 <0>         0.3927
     40 H11         3.3469   -3.6735   -0.0508 H         1 <0>         0.4009
     41 H12         5.2634   -5.0158   -0.0771 H         1 <0>         0.1151
     42 H13         7.9062   -2.1272   -0.0760 H         1 <0>         0.1382
     43 H14        10.3921   -3.0600    0.2287 H         1 <0>         0.1053
     44 H15         9.4737   -3.6043   -2.2978 H         1 <0>         0.0676
     45 H16        10.7779   -4.6817   -1.7050 H         1 <0>         0.0709
     46 H17         8.0014   -5.3893   -2.3033 H         1 <0>         0.0668
     47 H18         9.3055   -6.4668   -1.7105 H         1 <0>         0.0704
     48 H19         7.6301   -6.4047    0.2162 H         1 <0>         0.1035
     49 H20        10.2291   -5.7361    0.6447 H         1 <0>         0.0787
     50 H21         9.1351   -4.8372    1.7699 H         1 <0>         0.0759
     51 H22         3.8636    2.6900   -0.0213 H         1 <0>         0.4201
     52 H23         5.2383    1.7244   -0.0398 H         1 <0>         0.4099
@<TRIPOS>BOND
     1    1    9 1
     2    1    2 2
     3    1   33 1
     4    2    3 1
     5    3    8 ar
     6    3    4 ar
     7    4    5 ar
     8    4   32 1
     9    5    6 ar
    10    6    7 ar
    11    6   22 1
    12    7    8 ar
    13    8    9 1
    14    9   10 1
    15   10   17 1
    16   10   11 1
    17   10   34 1
    18   11   12 1
    19   11   13 1
    20   11   21 1
    21   13   14 1
    22   13   15 1
    23   13   20 1
    24   15   16 1
    25   15   17 1
    26   15   18 1
    27   18   19 1
    28   18   35 1
    29   18   36 1
    30   19   37 1
    31   20   38 1
    32   21   39 1
    33   22   23 1
    34   22   40 1
    35   23   24 2
    36   24   25 1
    37   24   41 1
    38   25   30 1
    39   25   26 2
    40   26   27 1
    41   26   42 1
    42   27   31 1
    43   27   28 1
    44   27   43 1
    45   28   29 1
    46   28   44 1
    47   28   45 1
    48   29   30 1
    49   29   46 1
    50   29   47 1
    51   30   31 1
    52   30   48 1
    53   31   49 1
    54   31   50 1
    55   32   51 1
    56   32   52 1
@<TRIPOS>MOLECULE
CHEMBL1096134
   50    54     0     0     0
SMALL
USER_CHARGES

@<TRIPOS>ATOM
      1 C1          1.4531   -1.1893   -2.4717 C.3       1 <0>        -0.0472
      2 N1          0.7173   -1.2945   -1.2046 N.4       1 <0>        -0.3846
      3 C2          1.5469   -1.9941   -0.2155 C.3       1 <0>        -0.0232
      4 C3          0.8279   -2.0036    1.1376 C.3       1 <0>         0.0934
      5 N2         -0.5114   -2.5826    0.9500 N.pl3     1 <0>        -0.6379
      6 C4         -1.3523   -2.0481   -0.1323 C.3       1 <0>         0.0962
      7 C5         -0.5304   -2.0366   -1.4254 C.3       1 <0>        -0.0232
      8 C6         -0.9694   -3.6052    1.7722 C.ar      1 <0>         0.2258
      9 C7         -2.2770   -4.0585    1.6502 C.ar      1 <0>        -0.1808
     10 C8         -2.7385   -5.0752    2.4644 C.ar      1 <0>         0.0020
     11 C9         -1.8936   -5.6481    3.4099 C.ar      1 <0>        -0.1863
     12 C10        -0.5684   -5.1927    3.5374 C.ar      1 <0>         0.0229
     13 C11        -0.1121   -4.1775    2.7139 C.ar      1 <0>        -0.1423
     14 C12         0.0968   -5.9728    4.6119 C.ar      1 <0>         0.2929
     15 C13        -0.8305   -6.8983    5.1307 C.ar      1 <0>        -0.3416
     16 C14        -0.4202   -7.7515    6.1657 C.ar      1 <0>         0.3464
     17 N3          0.8309   -7.6516    6.6161 N.ar      1 <0>        -0.5647
     18 C15         1.6703   -6.7679    6.1004 C.ar      1 <0>         0.6029
     19 N4          1.3198   -5.9423    5.1194 N.ar      1 <0>        -0.5627
     20 N5          2.9549   -6.7013    6.5988 N.pl3     1 <0>        -0.8028
     21 C16        -1.3566   -8.7417    6.7461 C.ar      1 <0>        -0.0871
     22 C17        -2.7127   -8.4377    6.8639 C.ar      1 <0>        -0.0592
     23 C18        -3.5800   -9.3644    7.4050 C.ar      1 <0>        -0.1269
     24 C19        -3.1070  -10.5930    7.8301 C.ar      1 <0>        -0.0890
     25 C20        -1.7629  -10.9003    7.7163 C.ar      1 <0>        -0.1327
     26 C21        -0.8866   -9.9841    7.1716 C.ar      1 <0>        -0.0646
     27 C22        -2.0995   -6.7287    4.4019 C.2       1 <0>         0.4627
     28 O1         -3.1238   -7.3579    4.5811 O.2       1 <0>        -0.4098
     29 H1          0.8414   -0.6631   -3.2045 H         1 <0>         0.1260
     30 H2          2.3796   -0.6386   -2.3091 H         1 <0>         0.1258
     31 H3          1.6843   -2.1882   -2.8416 H         1 <0>         0.1222
     32 H4          1.7170   -3.0194   -0.5439 H         1 <0>         0.1339
     33 H5          2.5033   -1.4810   -0.1153 H         1 <0>         0.1435
     34 H6          1.3920   -2.6080    1.8479 H         1 <0>         0.1300
     35 H7          0.7369   -0.9836    1.5111 H         1 <0>         0.0939
     36 H8         -2.2296   -2.6820   -0.2615 H         1 <0>         0.1302
     37 H9         -1.6634   -1.0327    0.1130 H         1 <0>         0.0935
     38 H10        -1.1047   -1.5548   -2.2168 H         1 <0>         0.1437
     39 H11        -0.2974   -3.0606   -1.7172 H         1 <0>         0.1340
     40 H12        -2.9347   -3.6148    0.9175 H         1 <0>         0.1392
     41 H13        -3.7555   -5.4252    2.3669 H         1 <0>         0.1465
     42 H14         0.9051   -3.8256    2.8027 H         1 <0>         0.1391
     43 H15         3.2288   -7.2957    7.3146 H         1 <0>         0.4233
     44 H16         3.5842   -6.0599    6.2334 H         1 <0>         0.4191
     45 H17        -3.0830   -7.4788    6.5327 H         1 <0>         0.1339
     46 H18        -4.6303   -9.1300    7.4971 H         1 <0>         0.1301
     47 H19        -3.7898  -11.3151    8.2530 H         1 <0>         0.1286
     48 H20        -1.3995  -11.8609    8.0503 H         1 <0>         0.1300
     49 H21         0.1617  -10.2267    7.0792 H         1 <0>         0.1294
     50 H22         0.5012   -0.3693   -0.8648 H         1 <0>         0.4255
@<TRIPOS>BOND
     1    1    2 1
     2    1   29 1
     3    1   30 1
     4    1   31 1
     5    2    7 1
     6    2    3 1
     7    2   50 1
     8    3    4 1
     9    3   32 1
    10    3   33 1
    11    4    5 1
    12    4   34 1
    13    4   35 1
    14    5    6 1
    15    5    8 1
    16    6    7 1
    17    6   36 1
    18    6   37 1
    19    7   38 1
    20    7   39 1
    21    8   13 ar
    22    8    9 ar
    23    9   10 ar
    24    9   40 1
    25   10   11 ar
    26   10   41 1
    27   11   27 1
    28   11   12 ar
    29   12   13 ar
    30   12   14 1
    31   13   42 1
    32   14   19 ar
    33   14   15 ar
    34   15   16 ar
    35   15   27 1
    36   16   17 ar
    37   16   21 1
    38   17   18 ar
    39   18   19 ar
    40   18   20 1
    41   20   43 1
    42   20   44 1
    43   21   26 ar
    44   21   22 ar
    45   22   23 ar
    46   22   45 1
    47   23   24 ar
    48   23   46 1
    49   24   25 ar
    50   24   47 1
    51   25   26 ar
    52   25   48 1
    53   26   49 1
    54   27   28 2
@<TRIPOS>MOLECULE
CHEMBL398046
   41    45     0     0     0
SMALL
USER_CHARGES

@<TRIPOS>ATOM
      1 C1         -0.0167    1.3781    0.0096 C.ar      1 <0>        -0.1186
      2 C2          1.1709    2.0855    0.0021 C.ar      1 <0>        -0.1176
      3 C3          2.3773    1.4107   -0.0130 C.ar      1 <0>        -0.1116
      4 C4          2.3960    0.0285   -0.0201 C.ar      1 <0>        -0.0877
      5 C5          1.2084   -0.6789   -0.0117 C.ar      1 <0>        -0.1136
      6 C6          0.0021   -0.0041    0.0020 C.ar      1 <0>        -0.1176
      7 C7          3.7112   -0.7071   -0.0376 C.3       1 <0>        -0.0945
      8 C8          4.1714   -0.9633    1.3989 C.3       1 <0>         0.1153
      9 N1          5.4498   -1.6784    1.3820 N.pl3     1 <0>        -0.4513
     10 C9          5.6198   -3.0284    1.4633 C.2       1 <0>         0.2301
     11 N2          6.8894   -3.3160    1.4183 N.2       1 <0>        -0.4328
     12 C10         7.6047   -2.1745    1.3061 C.2       1 <0>        -0.0259
     13 C11         6.6954   -1.1124    1.2753 C.2       1 <0>         0.2886
     14 N3          7.1426    0.1437    1.1619 N.2       1 <0>        -0.5436
     15 C12         8.4200    0.4258    1.0738 C.2       1 <0>         0.6699
     16 N4          9.3826   -0.5397    1.0915 N.pl3     1 <0>        -0.3629
     17 C13         9.0279   -1.8587    1.2136 C.2       1 <0>         0.3978
     18 N5         10.1337   -2.5770    1.2057 N.2       1 <0>        -0.4999
     19 C14        11.1942   -1.7678    1.0987 C.2       1 <0>         0.3452
     20 N6         10.7811   -0.5165    1.0155 N.2       1 <0>        -0.2954
     21 C15        12.6048   -2.2073    1.0569 C.2       1 <0>         0.0436
     22 C16        13.6905   -1.3958    0.9539 C.2       1 <0>        -0.1377
     23 C17        14.8240   -2.2328    0.9502 C.2       1 <0>        -0.2201
     24 C18        14.3787   -3.5007    1.0501 C.2       1 <0>        -0.0043
     25 O1         13.0380   -3.4812    1.1202 O.3       1 <0>        -0.1516
     26 N7          8.8027    1.7434    0.9590 N.pl3     1 <0>        -0.8069
     27 H1         -0.9591    1.9053    0.0259 H         1 <0>         0.1229
     28 H2          1.1563    3.1654    0.0076 H         1 <0>         0.1235
     29 H3          3.3051    1.9634   -0.0196 H         1 <0>         0.1231
     30 H4          1.2231   -1.7588   -0.0176 H         1 <0>         0.1236
     31 H5         -0.9258   -0.5567    0.0082 H         1 <0>         0.1240
     32 H6          3.5884   -1.6586   -0.5549 H         1 <0>         0.0826
     33 H7          4.4573   -0.1052   -0.5563 H         1 <0>         0.0823
     34 H8          4.2941   -0.0118    1.9163 H         1 <0>         0.0998
     35 H9          3.4252   -1.5652    1.9176 H         1 <0>         0.1053
     36 H10         4.8220   -3.7508    1.5523 H         1 <0>         0.2283
     37 H11        13.6852   -0.3178    0.8874 H         1 <0>         0.1601
     38 H12        15.8546   -1.9178    0.8800 H         1 <0>         0.1594
     39 H13        14.9977   -4.3854    1.0744 H         1 <0>         0.2141
     40 H14         8.1319    2.4438    0.9443 H         1 <0>         0.4288
     41 H15         9.7433    1.9712    0.8927 H         1 <0>         0.4254
@<TRIPOS>BOND
     1    1    6 ar
     2    1    2 ar
     3    1   27 1
     4    2    3 ar
     5    2   28 1
     6    3    4 ar
     7    3   29 1
     8    4    5 ar
     9    4    7 1
    10    5    6 ar
    11    5   30 1
    12    6   31 1
    13    7    8 1
    14    7   32 1
    15    7   33 1
    16    8    9 1
    17    8   34 1
    18    8   35 1
    19    9   13 1
    20    9   10 1
    21   10   11 2
    22   10   36 1
    23   11   12 1
    24   12   17 1
    25   12   13 2
    26   13   14 1
    27   14   15 2
    28   15   16 1
    29   15   26 1
    30   16   20 1
    31   16   17 1
    32   17   18 2
    33   18   19 1
    34   19   20 2
    35   19   21 1
    36   21   25 1
    37   21   22 2
    38   22   23 1
    39   22   37 1
    40   23   24 2
    41   23   38 1
    42   24   25 1
    43   24   39 1
    44   26   40 1
    45   26   41 1
@<TRIPOS>MOLECULE
CHEMBL456287
   49    52     0     0     0
SMALL
USER_CHARGES

@<TRIPOS>ATOM
      1 C1         -0.2216    1.6736   -0.8767 C.3       1 <0>        -0.0733
      2 C2         -0.0898    0.1922   -0.6335 C.2       1 <0>         0.0899
      3 C3         -0.2439   -0.8129   -1.5959 C.2       1 <0>        -0.2671
      4 C4         -0.0489   -2.0054   -0.9887 C.2       1 <0>         0.1236
      5 N1          0.2208   -1.7607    0.3208 N.pl3     1 <0>        -0.3181
      6 N2          0.1936   -0.3730    0.5113 N.2       1 <0>        -0.2625
      7 C5          0.4834   -2.7197    1.2990 C.ar      1 <0>         0.6327
      8 N3          0.6155   -3.9860    0.9400 N.ar      1 <0>        -0.5643
      9 C6          0.8667   -4.9287    1.8444 C.ar      1 <0>         0.4616
     10 C7          0.9900   -4.5677    3.1817 C.ar      1 <0>        -0.3527
     11 C8          0.8445   -3.2249    3.5211 C.ar      1 <0>         0.4921
     12 N4          0.5990   -2.3377    2.5601 N.ar      1 <0>        -0.5838
     13 N5          0.9586   -2.8175    4.8411 N.pl3     1 <0>        -0.5907
     14 C9          0.6956   -1.4242    5.2378 C.3       1 <0>         0.1201
     15 C10        -0.5186   -1.4212    6.1653 C.3       1 <0>        -0.0988
     16 C11        -0.3843   -2.4802    7.2276 C.ar      1 <0>        -0.0663
     17 C12        -1.1555   -2.3428    8.3756 C.ar      1 <0>        -0.1191
     18 C13        -1.0876   -3.2821    9.3831 C.ar      1 <0>        -0.1146
     19 C14        -0.2468   -4.3718    9.2518 C.ar      1 <0>        -0.1200
     20 C15         0.5225   -4.5090    8.1148 C.ar      1 <0>        -0.1119
     21 C16         0.4594   -3.5609    7.1026 C.ar      1 <0>        -0.1016
     22 C17         1.3402   -3.7585    5.8996 C.3       1 <0>         0.1645
     23 N6          1.0036   -6.2580    1.4576 N.am      1 <0>        -0.6551
     24 C18         0.9874   -6.5844    0.1501 C.2       1 <0>         0.5010
     25 O1          0.7609   -5.7342   -0.6844 O.2       1 <0>        -0.4672
     26 C19         1.2508   -8.0060   -0.2749 C.3       1 <0>        -0.1689
     27 C20        -0.1182   -3.3602   -1.6451 C.3       1 <0>        -0.0810
     28 H1          0.7488    2.0835   -1.1569 H         1 <0>         0.0809
     29 H2         -0.9356    1.8475   -1.6817 H         1 <0>         0.0815
     30 H3         -0.5732    2.1612    0.0325 H         1 <0>         0.0755
     31 H4         -0.4776   -0.6623   -2.6395 H         1 <0>         0.1575
     32 H5          1.1933   -5.3107    3.9387 H         1 <0>         0.1484
     33 H6          1.5614   -1.0205    5.7624 H         1 <0>         0.0740
     34 H7          0.4856   -0.8224    4.3535 H         1 <0>         0.1089
     35 H8         -0.6035   -0.4444    6.6415 H         1 <0>         0.0890
     36 H9         -1.4176   -1.6130    5.5796 H         1 <0>         0.0805
     37 H10        -1.8135   -1.4927    8.4798 H         1 <0>         0.1229
     38 H11        -1.6893   -3.1665   10.2725 H         1 <0>         0.1240
     39 H12        -0.1927   -5.1127   10.0358 H         1 <0>         0.1251
     40 H13         1.1791   -5.3602    8.0116 H         1 <0>         0.1245
     41 H14         1.2304   -4.7795    5.5341 H         1 <0>         0.0963
     42 H15         2.3786   -3.5848    6.1822 H         1 <0>         0.0847
     43 H16         1.1107   -6.9498    2.1289 H         1 <0>         0.4225
     44 H17         1.4323   -8.6211    0.6065 H         1 <0>         0.0781
     45 H18         0.3851   -8.3904   -0.8142 H         1 <0>         0.1011
     46 H19         2.1257   -8.0349   -0.9245 H         1 <0>         0.1013
     47 H20         0.8856   -3.6804   -1.9243 H         1 <0>         0.0846
     48 H21        -0.5486   -4.0798   -0.9486 H         1 <0>         0.1005
     49 H22        -0.7417   -3.3003   -2.5371 H         1 <0>         0.0696
@<TRIPOS>BOND
     1    1    2 1
     2    1   28 1
     3    1   29 1
     4    1   30 1
     5    2    6 2
     6    2    3 1
     7    3    4 2
     8    3   31 1
     9    4    5 1
    10    4   27 1
    11    5    6 1
    12    5    7 1
    13    7   12 ar
    14    7    8 ar
    15    8    9 ar
    16    9   10 ar
    17    9   23 1
    18   10   11 ar
    19   10   32 1
    20   11   12 ar
    21   11   13 1
    22   13   22 1
    23   13   14 1
    24   14   15 1
    25   14   33 1
    26   14   34 1
    27   15   16 1
    28   15   35 1
    29   15   36 1
    30   16   21 ar
    31   16   17 ar
    32   17   18 ar
    33   17   37 1
    34   18   19 ar
    35   18   38 1
    36   19   20 ar
    37   19   39 1
    38   20   21 ar
    39   20   40 1
    40   21   22 1
    41   22   41 1
    42   22   42 1
    43   23   24 am
    44   23   43 1
    45   24   25 2
    46   24   26 1
    47   26   44 1
    48   26   45 1
    49   26   46 1
    50   27   47 1
    51   27   48 1
    52   27   49 1
@<TRIPOS>MOLECULE
CHEMBL1087078
   36    39     0     0     0
SMALL
USER_CHARGES

@<TRIPOS>ATOM
      1 C1          0.0180   -1.1779   -0.0044 C.1       1 <0>        -0.1450
      2 C2          0.0021   -0.0041    0.0020 C.1       1 <0>        -0.2105
      3 C3         -0.0179    1.4678    0.0101 C.3       1 <0>         0.1809
      4 O1          1.3227    1.9624   -0.0000 O.3       1 <0>        -0.2845
      5 C4          1.4820    3.3075    0.0057 C.ar      1 <0>         0.4249
      6 C5          2.7833    3.8782   -0.0096 C.ar      1 <0>        -0.1959
      7 C6          4.0830    3.1879   -0.0319 C.2       1 <0>        -0.0957
      8 C7          5.1813    3.9608   -0.0430 C.2       1 <0>        -0.1761
      9 S1          4.5727    5.6317   -0.0280 S.3       1 <0>         0.1680
     10 C8          2.8348    5.2857   -0.0029 C.ar      1 <0>         0.1421
     11 N1          1.7385    6.0158    0.0170 N.ar      1 <0>        -0.4894
     12 C9          0.5481    5.4295    0.0304 C.ar      1 <0>         0.4247
     13 N2          0.4304    4.1051    0.0200 N.ar      1 <0>        -0.5792
     14 C10        -0.6746    6.2676    0.0528 C.ar      1 <0>        -0.0530
     15 C11        -0.5700    7.6578    0.0536 C.ar      1 <0>        -0.0648
     16 C12        -1.7116    8.4328    0.0740 C.ar      1 <0>        -0.1301
     17 C13        -2.9579    7.8329    0.0939 C.ar      1 <0>        -0.0926
     18 C14        -3.0678    6.4539    0.0936 C.ar      1 <0>        -0.1312
     19 C15        -1.9333    5.6687    0.0671 C.ar      1 <0>        -0.0662
     20 C16         6.4482    3.1479   -0.0603 C.3       1 <0>        -0.0356
     21 C17         6.0073    1.7336    0.3765 C.3       1 <0>        -0.1171
     22 C18         4.5262    1.7221   -0.0498 C.3       1 <0>        -0.0610
     23 H1          0.0322   -2.2278   -0.0102 H         1 <0>         0.2269
     24 H2         -0.5451    1.8289   -0.8729 H         1 <0>         0.0971
     25 H3         -0.5281    1.8193    0.9069 H         1 <0>         0.0971
     26 H4          0.4025    8.1272    0.0387 H         1 <0>         0.1384
     27 H5         -1.6319    9.5099    0.0746 H         1 <0>         0.1306
     28 H6         -3.8486    8.4434    0.1102 H         1 <0>         0.1275
     29 H7         -4.0434    5.9910    0.1100 H         1 <0>         0.1298
     30 H8         -2.0204    4.5922    0.0624 H         1 <0>         0.1354
     31 H9          6.8695    3.1215   -1.0653 H         1 <0>         0.0911
     32 H10         7.1715    3.5558    0.6457 H         1 <0>         0.0851
     33 H11         6.5722    0.9673   -0.1543 H         1 <0>         0.0875
     34 H12         6.1039    1.6105    1.4553 H         1 <0>         0.0789
     35 H13         3.9348    1.1407    0.6576 H         1 <0>         0.0788
     36 H14         4.4261    1.3102   -1.0540 H         1 <0>         0.0831
@<TRIPOS>BOND
     1    1    2 3
     2    1   23 1
     3    2    3 1
     4    3    4 1
     5    3   24 1
     6    3   25 1
     7    4    5 1
     8    5   13 ar
     9    5    6 ar
    10    6   10 ar
    11    6    7 1
    12    7   22 1
    13    7    8 2
    14    8    9 1
    15    8   20 1
    16    9   10 1
    17   10   11 ar
    18   11   12 ar
    19   12   13 ar
    20   12   14 1
    21   14   19 ar
    22   14   15 ar
    23   15   16 ar
    24   15   26 1
    25   16   17 ar
    26   16   27 1
    27   17   18 ar
    28   17   28 1
    29   18   19 ar
    30   18   29 1
    31   19   30 1
    32   20   21 1
    33   20   31 1
    34   20   32 1
    35   21   22 1
    36   21   33 1
    37   21   34 1
    38   22   35 1
    39   22   36 1
@<TRIPOS>MOLECULE
CHEMBL442670
   36    40     0     0     0
SMALL
USER_CHARGES

@<TRIPOS>ATOM
      1 C1         -0.0162    1.3451    0.0094 C.2       1 <0>        -0.2252
      2 C2          1.3225    1.7763   -0.0010 C.2       1 <0>        -0.1226
      3 C3          2.0959    0.6543   -0.0144 C.2       1 <0>        -0.0087
      4 O1          1.2782   -0.4173   -0.0124 O.3       1 <0>        -0.1486
      5 C4          0.0021   -0.0041    0.0020 C.2       1 <0>         0.0021
      6 C5          3.5677    0.6188   -0.0291 C.ar      1 <0>         0.4098
      7 C6          4.2734   -0.4010    0.6510 C.ar      1 <0>        -0.1548
      8 C7          5.6790   -0.3802    0.5989 C.ar      1 <0>         0.3621
      9 N1          6.2899    0.5856   -0.0804 N.ar      1 <0>        -0.5811
     10 C8          5.5905    1.5202   -0.7032 C.ar      1 <0>         0.6218
     11 N2          4.2647    1.5429   -0.6876 N.ar      1 <0>        -0.5509
     12 N3          6.2669    2.5076   -1.3991 N.pl3     1 <0>        -0.8034
     13 N4          6.0998   -1.4584    1.3276 N.pl3     1 <0>        -0.3829
     14 N5          4.9441   -2.0995    1.7988 N.2       1 <0>         0.0039
     15 N6          3.9043   -1.4608    1.3883 N.2       1 <0>        -0.1667
     16 C9          7.4865   -1.8648    1.5687 C.3       1 <0>         0.1812
     17 C10         7.9940   -1.2001    2.8224 C.ar      1 <0>        -0.1398
     18 C11         8.6087    0.0428    2.7400 C.ar      1 <0>        -0.0413
     19 C12         9.0765    0.6629    3.8644 C.ar      1 <0>        -0.1249
     20 C13         8.9366    0.0462    5.1031 C.ar      1 <0>         0.1015
     21 C14         8.3151   -1.2113    5.1934 C.ar      1 <0>        -0.0218
     22 C15         7.8396   -1.8235    4.0259 C.ar      1 <0>         0.0033
     23 N7          8.3115   -1.5738    6.4916 N.2       1 <0>        -0.2072
     24 N8          8.8691   -0.6645    7.2108 N.2       1 <0>         0.0024
     25 N9          9.2875    0.3909    6.3867 N.pl3     1 <0>        -0.4963
     26 H1          9.7365    1.2036    6.6674 H         1 <0>         0.4498
     27 H2         -0.8933    1.9750    0.0252 H         1 <0>         0.1584
     28 H3          1.6703    2.7988    0.0008 H         1 <0>         0.1591
     29 H4         -0.8670   -0.6452    0.0072 H         1 <0>         0.2135
     30 H5          7.2366    2.5058   -1.4240 H         1 <0>         0.4204
     31 H6          5.7711    3.2012   -1.8618 H         1 <0>         0.4221
     32 H7          7.5325   -2.9473    1.6872 H         1 <0>         0.1191
     33 H8          8.1052   -1.5653    0.7227 H         1 <0>         0.1169
     34 H9          8.7182    0.5231    1.7789 H         1 <0>         0.1442
     35 H10         9.5539    1.6290    3.7912 H         1 <0>         0.1379
     36 H11         7.3561   -2.7878    4.0783 H         1 <0>         0.1465
@<TRIPOS>BOND
     1    1    5 2
     2    1    2 1
     3    1   27 1
     4    2    3 2
     5    2   28 1
     6    3    4 1
     7    3    6 1
     8    4    5 1
     9    5   29 1
    10    6   11 ar
    11    6    7 ar
    12    7   15 1
    13    7    8 ar
    14    8    9 ar
    15    8   13 1
    16    9   10 ar
    17   10   11 ar
    18   10   12 1
    19   12   30 1
    20   12   31 1
    21   13   14 1
    22   13   16 1
    23   14   15 2
    24   16   17 1
    25   16   32 1
    26   16   33 1
    27   17   22 ar
    28   17   18 ar
    29   18   19 ar
    30   18   34 1
    31   19   20 ar
    32   19   35 1
    33   20   25 1
    34   20   21 ar
    35   21   22 ar
    36   21   23 1
    37   22   36 1
    38   23   24 2
    39   24   25 1
    40   25   26 1
@<TRIPOS>MOLECULE
CHEMBL409419
   61    64     0     0     0
SMALL
USER_CHARGES

@<TRIPOS>ATOM
      1 C1         -0.0174    1.5029    0.0163 C.3       1 <0>        -0.0844
      2 C2          0.0028   -0.0040    0.0067 C.2       1 <0>         0.0359
      3 C3         -1.0824   -0.8047    0.0055 C.2       1 <0>        -0.2288
      4 C4         -0.6156   -2.1325   -0.0046 C.2       1 <0>        -0.1081
      5 C5          0.7438   -2.0698   -0.0090 C.2       1 <0>         0.0012
      6 O1          1.1033   -0.7711   -0.0079 O.3       1 <0>        -0.1494
      7 C6          1.6639   -3.2233   -0.0197 C.ar      1 <0>         0.4686
      8 N1          1.1612   -4.4528   -0.0311 N.ar      1 <0>        -0.5101
      9 C7          1.9607   -5.5134   -0.0409 C.ar      1 <0>         0.4228
     10 C8          3.3411   -5.3227   -0.0390 C.ar      1 <0>        -0.2528
     11 C9          3.8312   -4.0210   -0.0269 C.ar      1 <0>         0.4642
     12 N2          2.9741   -3.0063   -0.0230 N.ar      1 <0>        -0.5349
     13 N3          5.2072   -3.7839   -0.0245 N.pl3     1 <0>        -0.3396
     14 C10         5.8270   -2.6608   -0.4732 C.2       1 <0>         0.1161
     15 C11         7.1571   -2.8288   -0.2951 C.2       1 <0>        -0.2538
     16 C12         7.3603   -4.0894    0.2785 C.2       1 <0>         0.1121
     17 N4          6.1949   -4.6588    0.4463 N.2       1 <0>        -0.2886
     18 C13         8.6944   -4.6863    0.6461 C.3       1 <0>        -0.0793
     19 C14         5.1541   -1.4481   -1.0627 C.3       1 <0>        -0.0900
     20 N5          1.4270   -6.7978   -0.0524 N.am      1 <0>        -0.6335
     21 C15         0.0948   -6.9750    0.0491 C.2       1 <0>         0.4991
     22 O2         -0.6457   -6.0146    0.0576 O.2       1 <0>        -0.4524
     23 C16        -0.4747   -8.3664    0.1520 C.3       1 <0>        -0.0337
     24 N6         -1.9383   -8.2904    0.2514 N.4       1 <0>        -0.3514
     25 C17        -2.4675   -9.6387    0.5485 C.3       1 <0>         0.0029
     26 C18        -3.8384   -9.4981    1.1607 C.3       1 <0>        -0.1505
     27 C19        -4.9528   -9.5854    0.1032 C.3       1 <0>         0.0440
     28 N7         -4.6102   -8.8490   -1.1352 N.3       1 <0>        -0.5627
     29 C20        -3.9735   -7.5740   -0.8933 C.3       1 <0>         0.0464
     30 C21        -2.4452   -7.7631   -0.9406 C.3       1 <0>        -0.0453
     31 C22        -5.7888   -8.6936   -1.9983 C.3       1 <0>         0.0241
     32 H1          1.0052    1.8801    0.0100 H         1 <0>         0.0823
     33 H2         -0.5437    1.8648   -0.8670 H         1 <0>         0.0948
     34 H3         -0.5285    1.8536    0.9129 H         1 <0>         0.0946
     35 H4         -2.1146   -0.4871    0.0115 H         1 <0>         0.1588
     36 H5         -1.2194   -3.0278   -0.0078 H         1 <0>         0.1617
     37 H6          4.0152   -6.1665   -0.0464 H         1 <0>         0.1656
     38 H7          7.9270   -2.1159   -0.5509 H         1 <0>         0.1633
     39 H8          8.9433   -4.4154    1.6721 H         1 <0>         0.0865
     40 H9          8.6432   -5.7716    0.5591 H         1 <0>         0.0785
     41 H10         9.4615   -4.3036   -0.0271 H         1 <0>         0.0874
     42 H11         4.9184   -0.7408   -0.2675 H         1 <0>         0.0903
     43 H12         5.8224   -0.9758   -1.7828 H         1 <0>         0.0871
     44 H13         4.2348   -1.7505   -1.5642 H         1 <0>         0.0768
     45 H14         2.0136   -7.5661   -0.1335 H         1 <0>         0.4337
     46 H15        -0.1999   -8.9380   -0.7345 H         1 <0>         0.1670
     47 H16        -0.0753   -8.8577    1.0393 H         1 <0>         0.1676
     48 H17        -2.5366  -10.2155   -0.3738 H         1 <0>         0.1444
     49 H18        -1.8043  -10.1451    1.2498 H         1 <0>         0.1347
     50 H19        -3.9823  -10.2917    1.8938 H         1 <0>         0.1204
     51 H20        -3.9039   -8.5345    1.6660 H         1 <0>         0.0819
     52 H21        -5.1238  -10.6331   -0.1444 H         1 <0>         0.0950
     53 H22        -5.8694   -9.1684    0.5203 H         1 <0>         0.0587
     54 H23        -4.2773   -6.8627   -1.6613 H         1 <0>         0.1136
     55 H24        -4.2649   -7.2008    0.0884 H         1 <0>         0.0650
     56 H25        -1.9753   -6.7975   -1.1278 H         1 <0>         0.1487
     57 H26        -2.1979   -8.4389   -1.7593 H         1 <0>         0.1334
     58 H27        -6.5324   -8.0792   -1.4907 H         1 <0>         0.0383
     59 H28        -5.4951   -8.2119   -2.9310 H         1 <0>         0.0790
     60 H29        -6.2133   -9.6741   -2.2137 H         1 <0>         0.0797
     61 H30        -2.1813   -7.6719    1.0106 H         1 <0>         0.4232
@<TRIPOS>BOND
     1    1    2 1
     2    1   32 1
     3    1   33 1
     4    1   34 1
     5    2    6 1
     6    2    3 2
     7    3    4 1
     8    3   35 1
     9    4    5 2
    10    4   36 1
    11    5    6 1
    12    5    7 1
    13    7   12 ar
    14    7    8 ar
    15    8    9 ar
    16    9   10 ar
    17    9   20 1
    18   10   11 ar
    19   10   37 1
    20   11   12 ar
    21   11   13 1
    22   13   17 1
    23   13   14 1
    24   14   15 2
    25   14   19 1
    26   15   16 1
    27   15   38 1
    28   16   17 2
    29   16   18 1
    30   18   39 1
    31   18   40 1
    32   18   41 1
    33   19   42 1
    34   19   43 1
    35   19   44 1
    36   20   21 am
    37   20   45 1
    38   21   22 2
    39   21   23 1
    40   23   24 1
    41   23   46 1
    42   23   47 1
    43   24   30 1
    44   24   25 1
    45   24   61 1
    46   25   26 1
    47   25   48 1
    48   25   49 1
    49   26   27 1
    50   26   50 1
    51   26   51 1
    52   27   28 1
    53   27   52 1
    54   27   53 1
    55   28   29 1
    56   28   31 1
    57   29   30 1
    58   29   54 1
    59   29   55 1
    60   30   56 1
    61   30   57 1
    62   31   58 1
    63   31   59 1
    64   31   60 1
@<TRIPOS>MOLECULE
CHEMBL606319
   50    53     0     0     0
SMALL
USER_CHARGES

@<TRIPOS>ATOM
      1 C1         -0.0187    1.5258    0.0104 C.3       1 <0>        -0.1671
      2 C2          0.0021   -0.0041    0.0020 C.3       1 <0>         0.1127
      3 N1          0.6878   -0.4765   -1.2033 N.am      1 <0>        -0.7280
      4 C3          0.8268   -1.7986   -1.4250 C.2       1 <0>         0.4961
      5 O1          0.3843   -2.5972   -0.6267 O.2       1 <0>        -0.5070
      6 C4          1.5322   -2.2846   -2.6649 C.3       1 <0>         0.0427
      7 H1          2.5301   -1.8492   -2.7172 H         1 <0>         0.1292
      8 C5          0.7217   -1.8886   -3.9178 C.3       1 <0>         0.0520
      9 H2         -0.3249   -1.7189   -3.6651 H         1 <0>         0.0967
     10 C6          0.8760   -3.1431   -4.8202 C.3       1 <0>         0.0777
     11 H3          0.0208   -3.2552   -5.4867 H         1 <0>         0.1031
     12 C7          0.9061   -4.2690   -3.7562 C.3       1 <0>         0.3195
     13 O2          1.6263   -3.7137   -2.6418 O.3       1 <0>        -0.3323
     14 N2          1.6076   -5.4441   -4.2789 N.pl3     1 <0>        -0.4584
     15 C8          2.9233   -5.7482   -4.0911 C.2       1 <0>         0.2936
     16 N3          3.2128   -6.8643   -4.6950 N.2       1 <0>        -0.4644
     17 C9          2.1055   -7.3469   -5.3071 C.ar      1 <0>        -0.0911
     18 C10         1.0597   -6.4443   -5.0428 C.ar      1 <0>         0.3093
     19 N4         -0.1488   -6.6929   -5.5312 N.ar      1 <0>        -0.5357
     20 C11        -0.3723   -7.7795   -6.2576 C.ar      1 <0>         0.4860
     21 N5          0.5864   -8.6608   -6.5286 N.ar      1 <0>        -0.5709
     22 C12         1.8249   -8.4840   -6.0863 C.ar      1 <0>         0.5147
     23 N6          2.8159   -9.4069   -6.3721 N.pl3     1 <0>        -0.8128
     24 C13        -1.6903   -8.0123   -6.7669 C.1       1 <0>        -0.0640
     25 C14        -2.7708   -8.2031   -7.1844 C.1       1 <0>        -0.1359
     26 C15        -4.1256   -8.4424   -7.7080 C.3       1 <0>         0.2263
     27 N7         -4.1394   -9.6907   -8.4747 N.pl3     1 <0>        -0.4634
     28 C16        -3.8870   -9.8245   -9.8133 C.2       1 <0>        -0.0508
     29 C17        -4.0047  -11.1344  -10.1030 C.2       1 <0>        -0.0277
     30 N8         -4.3204  -11.7827   -8.9720 N.2       1 <0>        -0.4932
     31 C18        -4.3978  -10.9250   -7.9916 C.2       1 <0>         0.1887
     32 O3          2.0984   -3.0988   -5.5591 O.3       1 <0>        -0.5338
     33 O4          1.2850   -0.7342   -4.5440 O.3       1 <0>        -0.5365
     34 H4          1.0039    1.9031    0.0027 H         1 <0>         0.0639
     35 H5         -0.5459    1.8868   -0.8726 H         1 <0>         0.0633
     36 H6         -0.5289    1.8773    0.9072 H         1 <0>         0.0785
     37 H7          0.5293   -0.3651    0.8851 H         1 <0>         0.0718
     38 H8         -1.0205   -0.3814    0.0098 H         1 <0>         0.0714
     39 H9          1.0417    0.1622   -1.8418 H         1 <0>         0.3972
     40 H10        -0.1080   -4.5346   -3.4576 H         1 <0>         0.1317
     41 H11         3.6225   -5.1506   -3.5251 H         1 <0>         0.2241
     42 H12         3.7152   -9.2733   -6.0341 H         1 <0>         0.4221
     43 H13         2.6110  -10.1874   -6.9104 H         1 <0>         0.4123
     44 H14        -4.8278   -8.5181   -6.8778 H         1 <0>         0.1275
     45 H15        -4.4163   -7.6151   -8.3554 H         1 <0>         0.1249
     46 H16        -3.6410   -9.0319  -10.5045 H         1 <0>         0.1756
     47 H17        -3.8687  -11.5841  -11.0755 H         1 <0>         0.1704
     48 H18        -4.6324  -11.1626   -6.9644 H         1 <0>         0.2057
     49 H19         2.1670   -2.3453   -6.1612 H         1 <0>         0.3962
     50 H20         1.2895    0.0542   -3.9840 H         1 <0>         0.3881
@<TRIPOS>BOND
     1    1    2 1
     2    1   34 1
     3    1   35 1
     4    1   36 1
     5    2    3 1
     6    2   37 1
     7    2   38 1
     8    3    4 am
     9    3   39 1
    10    4    5 2
    11    4    6 1
    12    6    7 1
    13    6   13 1
    14    6    8 1
    15    8    9 1
    16    8   10 1
    17    8   33 1
    18   10   11 1
    19   10   12 1
    20   10   32 1
    21   12   13 1
    22   12   14 1
    23   12   40 1
    24   14   18 1
    25   14   15 1
    26   15   16 2
    27   15   41 1
    28   16   17 1
    29   17   22 ar
    30   17   18 ar
    31   18   19 ar
    32   19   20 ar
    33   20   21 ar
    34   20   24 1
    35   21   22 ar
    36   22   23 1
    37   23   42 1
    38   23   43 1
    39   24   25 3
    40   25   26 1
    41   26   27 1
    42   26   44 1
    43   26   45 1
    44   27   31 1
    45   27   28 1
    46   28   29 2
    47   28   46 1
    48   29   30 1
    49   29   47 1
    50   30   31 2
    51   31   48 1
    52   32   49 1
    53   33   50 1
@<TRIPOS>MOLECULE
CHEMBL573588
   58    63     0     0     0
SMALL
USER_CHARGES

@<TRIPOS>ATOM
      1 C1         -0.0187    1.5258    0.0104 C.3       1 <0>        -0.1538
      2 C2          0.0021   -0.0041    0.0020 C.3       1 <0>        -0.1212
      3 C3          0.7182   -0.4975   -1.2568 C.3       1 <0>        -0.1354
      4 C4          0.7390   -2.0273   -1.2652 C.3       1 <0>         0.1265
      5 N1          1.4247   -2.4998   -2.4705 N.pl3     1 <0>        -0.3354
      6 C5          2.4724   -3.3422   -2.4846 C.2       1 <0>         0.1578
      7 C6          2.8297   -3.5447   -3.7925 C.2       1 <0>        -0.2677
      8 C7          1.9052   -2.7469   -4.6139 C.2       1 <0>         0.3013
      9 N2          1.0841   -2.1470   -3.7817 N.2       1 <0>        -0.2480
     10 N3          2.0507   -2.7760   -5.9648 N.2       1 <0>        -0.4472
     11 C8          2.9792   -3.4857   -6.5424 C.2       1 <0>         0.6510
     12 N4          3.8820   -4.2574   -5.8618 N.pl3     1 <0>        -0.3751
     13 C9          3.8562   -4.3252   -4.4945 C.2       1 <0>         0.4109
     14 N5          4.8225   -5.1277   -4.1083 N.2       1 <0>        -0.5123
     15 C10         5.4813   -5.5878   -5.1806 C.2       1 <0>         0.3448
     16 N6          4.9394   -5.0831   -6.2716 N.2       1 <0>        -0.2918
     17 C11         6.6313   -6.5153   -5.1461 C.2       1 <0>         0.0432
     18 C12         7.3106   -6.9844   -6.2262 C.2       1 <0>        -0.1369
     19 C13         8.3221   -7.8322   -5.7328 C.2       1 <0>        -0.2190
     20 C14         8.2114   -7.8387   -4.3898 C.2       1 <0>        -0.0052
     21 O1          7.1922   -7.0382   -4.0386 O.3       1 <0>        -0.1534
     22 N7          3.0561   -3.4578   -7.9217 N.am      1 <0>        -0.6463
     23 C15         2.1860   -2.7112   -8.6302 C.2       1 <0>         0.5064
     24 O2          1.3356   -2.0640   -8.0571 O.2       1 <0>        -0.4315
     25 C16         2.2699   -2.6807  -10.1345 C.3       1 <0>        -0.0941
     26 C17         1.1930   -1.7783  -10.6795 C.ar      1 <0>        -0.0717
     27 C18        -0.0589   -2.3099  -10.9840 C.ar      1 <0>        -0.0993
     28 C19        -1.0531   -1.5227  -11.4780 C.ar      1 <0>        -0.1032
     29 C20        -0.8174   -0.1528  -11.6851 C.ar      1 <0>        -0.0478
     30 C21        -1.8194    0.6917  -12.1931 C.ar      1 <0>        -0.1073
     31 C22        -1.5549    2.0135  -12.3802 C.ar      1 <0>        -0.1150
     32 C23        -0.3031    2.5451  -12.0755 C.ar      1 <0>        -0.1172
     33 C24         0.6912    1.7577  -11.5819 C.ar      1 <0>        -0.1046
     34 C25         0.4555    0.3878  -11.3752 C.ar      1 <0>        -0.0503
     35 C26         1.4558   -0.4555  -10.8619 C.ar      1 <0>        -0.0850
     36 H1          1.0039    1.9031    0.0027 H         1 <0>         0.0550
     37 H2         -0.5459    1.8868   -0.8726 H         1 <0>         0.0568
     38 H3         -0.5289    1.8773    0.9072 H         1 <0>         0.0582
     39 H4          0.5293   -0.3651    0.8851 H         1 <0>         0.0660
     40 H5         -1.0205   -0.3814    0.0098 H         1 <0>         0.0677
     41 H6          0.1910   -0.1364   -2.1398 H         1 <0>         0.0833
     42 H7          1.7408   -0.1202   -1.2645 H         1 <0>         0.0712
     43 H8          1.2661   -2.3884   -0.3821 H         1 <0>         0.1084
     44 H9         -0.2836   -2.4046   -1.2575 H         1 <0>         0.0985
     45 H10         2.9480   -3.7807   -1.6198 H         1 <0>         0.2003
     46 H11         7.1130   -6.7523   -7.2623 H         1 <0>         0.1607
     47 H12         9.0487   -8.3743   -6.3198 H         1 <0>         0.1595
     48 H13         8.8403   -8.3928   -3.7088 H         1 <0>         0.2138
     49 H14         3.7364   -3.9755   -8.3801 H         1 <0>         0.4304
     50 H15         3.2471   -2.3037  -10.4363 H         1 <0>         0.1130
     51 H16         2.1324   -3.6884  -10.5266 H         1 <0>         0.1137
     52 H17        -0.2427   -3.3623  -10.8258 H         1 <0>         0.1225
     53 H18        -2.0181   -1.9486  -11.7101 H         1 <0>         0.1285
     54 H19        -2.7940    0.2937  -12.4340 H         1 <0>         0.1271
     55 H20        -2.3266    2.6602  -12.7710 H         1 <0>         0.1233
     56 H21        -0.1192    3.5975  -12.2337 H         1 <0>         0.1233
     57 H22         1.6564    2.1834  -11.3506 H         1 <0>         0.1265
     58 H23         2.4291   -0.0567  -10.6171 H         1 <0>         0.1261
@<TRIPOS>BOND
     1    1    2 1
     2    1   36 1
     3    1   37 1
     4    1   38 1
     5    2    3 1
     6    2   39 1
     7    2   40 1
     8    3    4 1
     9    3   41 1
    10    3   42 1
    11    4    5 1
    12    4   43 1
    13    4   44 1
    14    5    9 1
    15    5    6 1
    16    6    7 2
    17    6   45 1
    18    7   13 1
    19    7    8 1
    20    8    9 2
    21    8   10 1
    22   10   11 2
    23   11   12 1
    24   11   22 1
    25   12   16 1
    26   12   13 1
    27   13   14 2
    28   14   15 1
    29   15   16 2
    30   15   17 1
    31   17   21 1
    32   17   18 2
    33   18   19 1
    34   18   46 1
    35   19   20 2
    36   19   47 1
    37   20   21 1
    38   20   48 1
    39   22   23 am
    40   22   49 1
    41   23   24 2
    42   23   25 1
    43   25   26 1
    44   25   50 1
    45   25   51 1
    46   26   35 ar
    47   26   27 ar
    48   27   28 ar
    49   27   52 1
    50   28   29 ar
    51   28   53 1
    52   29   34 ar
    53   29   30 ar
    54   30   31 ar
    55   30   54 1
    56   31   32 ar
    57   31   55 1
    58   32   33 ar
    59   32   56 1
    60   33   34 ar
    61   33   57 1
    62   34   35 ar
    63   35   58 1
@<TRIPOS>MOLECULE
CHEMBL605690
   56    59     0     0     0
SMALL
USER_CHARGES

@<TRIPOS>ATOM
      1 C1         -0.0187    1.5258    0.0104 C.3       1 <0>        -0.1670
      2 C2          0.0021   -0.0041    0.0020 C.3       1 <0>         0.1127
      3 N1         -1.3723   -0.5112    0.0124 N.am      1 <0>        -0.7283
      4 C3         -1.6006   -1.8394    0.0075 C.2       1 <0>         0.4959
      5 O1         -0.6682   -2.6149   -0.0056 O.2       1 <0>        -0.5068
      6 C4         -3.0144   -2.3611    0.0182 C.3       1 <0>         0.0429
      7 H1         -3.5693   -1.9423   -0.8214 H         1 <0>         0.1288
      8 C5         -3.7041   -1.9776    1.3451 C.3       1 <0>         0.0517
      9 H2         -2.9665   -1.7866    2.1246 H         1 <0>         0.0964
     10 C6         -4.5311   -3.2521    1.6670 C.3       1 <0>         0.0776
     11 H3         -4.6779   -3.3642    2.7412 H         1 <0>         0.1032
     12 C7         -3.5965   -4.3569    1.1129 C.3       1 <0>         0.3198
     13 O2         -3.0056   -3.7907   -0.0698 O.3       1 <0>        -0.3324
     14 N2         -4.3702   -5.5529    0.7708 N.pl3     1 <0>        -0.4598
     15 C8         -4.8574   -5.8736   -0.4614 C.2       1 <0>         0.2899
     16 N3         -5.4969   -7.0060   -0.4063 N.2       1 <0>        -0.4645
     17 C9         -5.4615   -7.4834    0.8604 C.ar      1 <0>        -0.0965
     18 C10        -4.7327   -6.5595    1.6308 C.ar      1 <0>         0.3108
     19 N4         -4.5454   -6.7990    2.9224 N.ar      1 <0>        -0.5418
     20 C11        -5.0353   -7.8963    3.4830 C.ar      1 <0>         0.4983
     21 N5         -5.7270   -8.7977    2.7912 N.ar      1 <0>        -0.5724
     22 C12        -5.9674   -8.6313    1.4969 C.ar      1 <0>         0.5138
     23 N6         -6.6869   -9.5751    0.7848 N.pl3     1 <0>        -0.8145
     24 C13        -4.8118   -8.1187    4.8798 C.1       1 <0>        -0.1235
     25 C14        -4.6286   -8.3010    6.0250 C.1       1 <0>        -0.0877
     26 C15        -4.3989   -8.5296    7.4609 C.3       1 <0>        -0.0044
     27 C16        -5.0522   -9.8486    7.8783 C.3       1 <0>        -0.0776
     28 C17        -4.8170  -10.0826    9.3483 C.ar      1 <0>        -0.0852
     29 C18        -3.6922  -10.7680    9.7678 C.ar      1 <0>        -0.1155
     30 C19        -3.4765  -10.9826   11.1162 C.ar      1 <0>        -0.1184
     31 C20        -4.3853  -10.5115   12.0452 C.ar      1 <0>        -0.1230
     32 C21        -5.5096   -9.8253   11.6258 C.ar      1 <0>        -0.1186
     33 C22        -5.7232   -9.6070   10.2776 C.ar      1 <0>        -0.1156
     34 O3         -5.7828   -3.2417    0.9776 O.3       1 <0>        -0.5332
     35 O4         -4.5567   -0.8449    1.1663 O.3       1 <0>        -0.5369
     36 H4          1.0039    1.9031    0.0027 H         1 <0>         0.0783
     37 H5         -0.5459    1.8868   -0.8726 H         1 <0>         0.0639
     38 H6         -0.5289    1.8773    0.9072 H         1 <0>         0.0631
     39 H7          0.5123   -0.3556   -0.8948 H         1 <0>         0.0718
     40 H8          0.5293   -0.3651    0.8851 H         1 <0>         0.0712
     41 H9         -2.1181    0.1091    0.0229 H         1 <0>         0.3971
     42 H10        -2.8246   -4.6006    1.8429 H         1 <0>         0.1316
     43 H11        -4.7318   -5.2758   -1.3520 H         1 <0>         0.2226
     44 H12        -6.8470   -9.4488   -0.1635 H         1 <0>         0.4212
     45 H13        -7.0310  -10.3630    1.2340 H         1 <0>         0.4117
     46 H14        -3.3272   -8.5777    7.6543 H         1 <0>         0.0973
     47 H15        -4.8350   -7.7109    8.0335 H         1 <0>         0.0971
     48 H16        -6.1238   -9.8004    7.6849 H         1 <0>         0.0803
     49 H17        -4.6161  -10.6672    7.3057 H         1 <0>         0.0805
     50 H18        -2.9822  -11.1361    9.0420 H         1 <0>         0.1229
     51 H19        -2.5981  -11.5187   11.4439 H         1 <0>         0.1220
     52 H20        -4.2171  -10.6798   13.0987 H         1 <0>         0.1210
     53 H21        -6.2198   -9.4575   12.3515 H         1 <0>         0.1219
     54 H22        -6.5997   -9.0676    9.9501 H         1 <0>         0.1227
     55 H23        -6.3572   -2.5014    1.2166 H         1 <0>         0.3955
     56 H24        -4.0940   -0.0456    0.8797 H         1 <0>         0.3878
@<TRIPOS>BOND
     1    1    2 1
     2    1   36 1
     3    1   37 1
     4    1   38 1
     5    2    3 1
     6    2   39 1
     7    2   40 1
     8    3    4 am
     9    3   41 1
    10    4    5 2
    11    4    6 1
    12    6    7 1
    13    6   13 1
    14    6    8 1
    15    8    9 1
    16    8   10 1
    17    8   35 1
    18   10   11 1
    19   10   12 1
    20   10   34 1
    21   12   13 1
    22   12   14 1
    23   12   42 1
    24   14   18 1
    25   14   15 1
    26   15   16 2
    27   15   43 1
    28   16   17 1
    29   17   22 ar
    30   17   18 ar
    31   18   19 ar
    32   19   20 ar
    33   20   21 ar
    34   20   24 1
    35   21   22 ar
    36   22   23 1
    37   23   44 1
    38   23   45 1
    39   24   25 3
    40   25   26 1
    41   26   27 1
    42   26   46 1
    43   26   47 1
    44   27   28 1
    45   27   48 1
    46   27   49 1
    47   28   33 ar
    48   28   29 ar
    49   29   30 ar
    50   29   50 1
    51   30   31 ar
    52   30   51 1
    53   31   32 ar
    54   31   52 1
    55   32   33 ar
    56   32   53 1
    57   33   54 1
    58   34   55 1
    59   35   56 1
@<TRIPOS>MOLECULE
CHEMBL220445
   28    29     0     0     0
SMALL
USER_CHARGES

@<TRIPOS>ATOM
      1 C1         -0.0187    1.5258    0.0104 C.3       1 <0>        -0.1405
      2 C2          0.0021   -0.0041    0.0020 C.3       1 <0>        -0.1126
      3 S1         -1.6997   -0.6320    0.0149 S.3       1 <0>         0.0256
      4 C3         -1.5080   -2.3834    0.0037 C.ar      1 <0>         0.3803
      5 N1         -2.5808   -3.1701    0.0042 N.ar      1 <0>        -0.5710
      6 C4         -2.4357   -4.4916   -0.0043 C.ar      1 <0>         0.4597
      7 N2         -1.2179   -5.0267   -0.0132 N.ar      1 <0>        -0.6079
      8 C5         -0.1461   -4.2401   -0.0137 C.ar      1 <0>         0.6164
      9 N3         -0.2910   -2.9190   -0.0108 N.ar      1 <0>        -0.6203
     10 N4          1.1174   -4.7956   -0.0226 N.pl3     1 <0>        -0.8029
     11 C6         -3.6312   -5.3688   -0.0032 C.ar      1 <0>        -0.0607
     12 C7         -4.9085   -4.8107    0.0009 C.ar      1 <0>        -0.0593
     13 C8         -6.0175   -5.6321    0.0019 C.ar      1 <0>        -0.1325
     14 C9         -5.8633   -7.0068   -0.0011 C.ar      1 <0>        -0.0896
     15 C10        -4.5982   -7.5662   -0.0051 C.ar      1 <0>        -0.1339
     16 C11        -3.4820   -6.7547   -0.0120 C.ar      1 <0>        -0.0610
     17 H1          1.0039    1.9031    0.0027 H         1 <0>         0.0810
     18 H2         -0.5459    1.8868   -0.8726 H         1 <0>         0.0679
     19 H3         -0.5289    1.8773    0.9072 H         1 <0>         0.0679
     20 H4          0.5123   -0.3556   -0.8948 H         1 <0>         0.0949
     21 H5          0.5293   -0.3651    0.8851 H         1 <0>         0.0949
     22 H6          1.2233   -5.7598   -0.0284 H         1 <0>         0.4196
     23 H7          1.8995   -4.2218   -0.0230 H         1 <0>         0.4186
     24 H8         -5.0300   -3.7376    0.0036 H         1 <0>         0.1397
     25 H9         -7.0076   -5.2008    0.0055 H         1 <0>         0.1311
     26 H10        -6.7340   -7.6457    0.0001 H         1 <0>         0.1278
     27 H11        -4.4838   -8.6402   -0.0071 H         1 <0>         0.1300
     28 H12        -2.4947   -7.1926   -0.0201 H         1 <0>         0.1368
@<TRIPOS>BOND
     1    1    2 1
     2    1   17 1
     3    1   18 1
     4    1   19 1
     5    2    3 1
     6    2   20 1
     7    2   21 1
     8    3    4 1
     9    4    9 ar
    10    4    5 ar
    11    5    6 ar
    12    6    7 ar
    13    6   11 1
    14    7    8 ar
    15    8    9 ar
    16    8   10 1
    17   10   22 1
    18   10   23 1
    19   11   16 ar
    20   11   12 ar
    21   12   13 ar
    22   12   24 1
    23   13   14 ar
    24   13   25 1
    25   14   15 ar
    26   14   26 1
    27   15   16 ar
    28   15   27 1
    29   16   28 1
@<TRIPOS>MOLECULE
CHEMBL475445
   43    46     0     0     0
SMALL
USER_CHARGES

@<TRIPOS>ATOM
      1 C1         -0.0173    1.4248    0.0099 C.3       1 <0>         0.0264
      2 O1          0.0021   -0.0041    0.0020 O.3       1 <0>        -0.3178
      3 C2         -1.2003   -0.6375    0.0101 C.ar      1 <0>         0.1275
      4 C3         -2.3746    0.1011    0.0195 C.ar      1 <0>        -0.2066
      5 C4         -3.5956   -0.5451    0.0272 C.ar      1 <0>        -0.0713
      6 C5         -3.6478   -1.9268    0.0260 C.ar      1 <0>        -0.1191
      7 C6         -2.4788   -2.6651    0.0172 C.ar      1 <0>        -0.0717
      8 C7         -1.2554   -2.0237    0.0032 C.ar      1 <0>        -0.1500
      9 C8         -4.9811   -2.6292    0.0350 C.3       1 <0>        -0.0619
     10 C9         -5.4428   -2.8652   -1.4045 C.3       1 <0>        -0.0995
     11 S1         -7.0477   -3.7107   -1.3937 S.3       1 <0>        -0.0212
     12 C10        -7.4373   -3.9075   -3.1008 C.2       1 <0>         0.1879
     13 C11        -8.6191   -4.5217   -3.4721 C.2       1 <0>        -0.2055
     14 C12        -8.8991   -4.6626   -4.8413 C.2       1 <0>         0.3632
     15 N1         -9.9092   -5.1863   -5.5197 N.2       1 <0>        -0.5233
     16 C13        -9.6793   -5.0618   -6.8317 C.2       1 <0>         0.3561
     17 N2         -8.5205   -4.4575   -7.0182 N.2       1 <0>        -0.3223
     18 N3         -7.9892   -4.1854   -5.7511 N.pl3     1 <0>        -0.3640
     19 C14        -6.8439   -3.5903   -5.3182 C.2       1 <0>         0.6639
     20 N4         -6.5906   -3.4568   -4.0354 N.2       1 <0>        -0.5613
     21 N5         -5.9392   -3.1163   -6.2385 N.pl3     1 <0>        -0.8057
     22 C15       -10.5819   -5.5286   -7.9051 C.2       1 <0>         0.0359
     23 C16       -11.7794   -6.1469   -7.7277 C.2       1 <0>        -0.1259
     24 C17       -12.2930   -6.4130   -9.0125 C.2       1 <0>        -0.2189
     25 C18       -11.3929   -5.9487   -9.9014 C.2       1 <0>        -0.0075
     26 O2        -10.3632   -5.4100   -9.2289 O.3       1 <0>        -0.1609
     27 H1          1.0053    1.8021    0.0021 H         1 <0>         0.1015
     28 H2         -0.5445    1.7859   -0.8732 H         1 <0>         0.0559
     29 H3         -0.5275    1.7763    0.9067 H         1 <0>         0.0565
     30 H4         -2.3343    1.1803    0.0211 H         1 <0>         0.1288
     31 H5         -4.5101    0.0294    0.0345 H         1 <0>         0.1261
     32 H6         -2.5223   -3.7443    0.0166 H         1 <0>         0.1309
     33 H7         -0.3427   -2.6008   -0.0082 H         1 <0>         0.1318
     34 H8         -4.8840   -3.5865    0.5470 H         1 <0>         0.0844
     35 H9         -5.7136   -2.0117    0.5548 H         1 <0>         0.0835
     36 H10        -5.5399   -1.9079   -1.9165 H         1 <0>         0.0961
     37 H11        -4.7104   -3.4827   -1.9243 H         1 <0>         0.0969
     38 H12        -9.3109   -4.8851   -2.7265 H         1 <0>         0.1697
     39 H13        -6.1196   -3.2072   -7.1872 H         1 <0>         0.4252
     40 H14        -5.1205   -2.6909   -5.9390 H         1 <0>         0.4293
     41 H15       -12.2467   -6.3879   -6.7844 H         1 <0>         0.1636
     42 H16       -13.2305   -6.8978   -9.2416 H         1 <0>         0.1599
     43 H17       -11.4863   -5.9977  -10.9762 H         1 <0>         0.2134
@<TRIPOS>BOND
     1    1    2 1
     2    1   27 1
     3    1   28 1
     4    1   29 1
     5    2    3 1
     6    3    8 ar
     7    3    4 ar
     8    4    5 ar
     9    4   30 1
    10    5    6 ar
    11    5   31 1
    12    6    7 ar
    13    6    9 1
    14    7    8 ar
    15    7   32 1
    16    8   33 1
    17    9   10 1
    18    9   34 1
    19    9   35 1
    20   10   11 1
    21   10   36 1
    22   10   37 1
    23   11   12 1
    24   12   20 1
    25   12   13 2
    26   13   14 1
    27   13   38 1
    28   14   18 1
    29   14   15 2
    30   15   16 1
    31   16   17 2
    32   16   22 1
    33   17   18 1
    34   18   19 1
    35   19   20 2
    36   19   21 1
    37   21   39 1
    38   21   40 1
    39   22   26 1
    40   22   23 2
    41   23   24 1
    42   23   41 1
    43   24   25 2
    44   24   42 1
    45   25   26 1
    46   25   43 1
@<TRIPOS>MOLECULE
CHEMBL256546
   70    74     0     0     0
SMALL
USER_CHARGES

@<TRIPOS>ATOM
      1 C1          8.3276   -1.9632   -0.0229 C.3       1 <0>        -0.0788
      2 C2          7.2456   -3.0122   -0.0325 C.2       1 <0>         0.0220
      3 C3          7.4442   -4.3460   -0.0478 C.2       1 <0>        -0.2242
      4 C4          6.1740   -4.9523   -0.0521 C.2       1 <0>        -0.1085
      5 C5          5.2590   -3.9452   -0.0390 C.2       1 <0>         0.0069
      6 O1          5.9255   -2.7740   -0.0213 O.3       1 <0>        -0.1516
      7 C6          3.7924   -4.1072   -0.0379 C.ar      1 <0>         0.4642
      8 N1          3.2761   -5.3312   -0.0451 N.ar      1 <0>        -0.5054
      9 C7          1.9604   -5.5132   -0.0444 C.ar      1 <0>         0.4397
     10 C8          1.1213   -4.4006   -0.0358 C.ar      1 <0>        -0.2598
     11 C9          1.6977   -3.1348   -0.0284 C.ar      1 <0>         0.4531
     12 N2          3.0215   -3.0261   -0.0242 N.ar      1 <0>        -0.5443
     13 N3          0.8947   -1.9926   -0.0198 N.pl3     1 <0>        -0.3332
     14 C10         1.2507   -0.7669    0.4467 C.2       1 <0>         0.1172
     15 C11         0.1939    0.0593    0.2742 C.2       1 <0>        -0.2609
     16 C12        -0.8398   -0.6788   -0.3144 C.2       1 <0>         0.1022
     17 N4         -0.4198   -1.9040   -0.4962 N.2       1 <0>        -0.2849
     18 C13        -2.2022   -0.1499   -0.6819 C.3       1 <0>        -0.0761
     19 C14         2.5818   -0.3957    1.0479 C.3       1 <0>        -0.0890
     20 N5          1.4270   -6.7978   -0.0524 N.am      1 <0>        -0.6500
     21 C15         2.2422   -7.8653   -0.1639 C.2       1 <0>         0.5066
     22 O2          3.4451   -7.7122   -0.1643 O.2       1 <0>        -0.4325
     23 C16         1.6587   -9.2492   -0.2879 C.3       1 <0>         0.0460
     24 O3          2.7164  -10.2045   -0.3918 O.3       1 <0>        -0.2892
     25 C17         2.3590  -11.5102   -0.5112 C.ar      1 <0>         0.1295
     26 C18         1.0175  -11.8642   -0.5339 C.ar      1 <0>        -0.2132
     27 C19         0.6568  -13.1919   -0.6559 C.ar      1 <0>        -0.0757
     28 C20         1.6313  -14.1681   -0.7553 C.ar      1 <0>        -0.1486
     29 C21         2.9685  -13.8180   -0.7325 C.ar      1 <0>        -0.0412
     30 C22         3.3345  -12.4908   -0.6164 C.ar      1 <0>        -0.1423
     31 C23         4.0279  -14.8844   -0.8406 C.3       1 <0>        -0.0781
     32 C24         4.3756  -15.1104   -2.3133 C.3       1 <0>         0.0611
     33 N6          5.4082  -16.1499   -2.4187 N.3       1 <0>        -0.5377
     34 C25         6.6769  -15.6935   -1.8327 C.3       1 <0>         0.0124
     35 C26         7.7049  -16.8254   -1.9097 C.3       1 <0>         0.0627
     36 O4          7.8540  -17.2352   -3.2718 O.3       1 <0>        -0.3855
     37 C27         6.6377  -17.6865   -3.8737 C.3       1 <0>         0.0631
     38 C28         5.5990  -16.5632   -3.8166 C.3       1 <0>         0.0170
     39 H1          7.8730   -0.9726   -0.0058 H         1 <0>         0.0793
     40 H2          8.9509   -2.0922    0.8620 H         1 <0>         0.0914
     41 H3          8.9413   -2.0660   -0.9178 H         1 <0>         0.0912
     42 H4          8.3977   -4.8532   -0.0557 H         1 <0>         0.1574
     43 H5          5.9658   -6.0120   -0.0639 H         1 <0>         0.1665
     44 H6          0.0478   -4.5186   -0.0354 H         1 <0>         0.1627
     45 H7          0.1544    1.1044    0.5435 H         1 <0>         0.1596
     46 H8         -2.1808    0.2311   -1.7029 H         1 <0>         0.0835
     47 H9         -2.9355   -0.9532   -0.6092 H         1 <0>         0.0771
     48 H10        -2.4759    0.6547    0.0005 H         1 <0>         0.0842
     49 H11         3.2532   -0.0531    0.2605 H         1 <0>         0.0888
     50 H12         2.4411    0.4015    1.7778 H         1 <0>         0.0836
     51 H13         3.0138   -1.2670    1.5402 H         1 <0>         0.0786
     52 H14         0.4683   -6.9254    0.0222 H         1 <0>         0.4264
     53 H15         1.0554   -9.4695    0.5927 H         1 <0>         0.1000
     54 H16         1.0333   -9.3013   -1.1791 H         1 <0>         0.1002
     55 H17         0.2561  -11.1023   -0.4559 H         1 <0>         0.1273
     56 H18        -0.3871  -13.4680   -0.6733 H         1 <0>         0.1275
     57 H19         1.3473  -15.2057   -0.8506 H         1 <0>         0.1264
     58 H20         4.3792  -12.2173   -0.6031 H         1 <0>         0.1311
     59 H21         4.9201  -14.5662   -0.3013 H         1 <0>         0.0758
     60 H22         3.6542  -15.8128   -0.4089 H         1 <0>         0.0862
     61 H23         3.4834  -15.4286   -2.8526 H         1 <0>         0.0792
     62 H24         4.7493  -14.1819   -2.7450 H         1 <0>         0.0390
     63 H25         7.0442  -14.8299   -2.3872 H         1 <0>         0.0444
     64 H26         6.5177  -15.4167   -0.7905 H         1 <0>         0.0896
     65 H27         8.6634  -16.4732   -1.5286 H         1 <0>         0.0988
     66 H28         7.3623  -17.6695   -1.3111 H         1 <0>         0.0606
     67 H29         6.8244  -17.9570   -4.9130 H         1 <0>         0.0988
     68 H30         6.2642  -18.5556   -3.3322 H         1 <0>         0.0607
     69 H31         4.6529  -16.9214   -4.2225 H         1 <0>         0.0871
     70 H32         5.9490  -15.7136   -4.4028 H         1 <0>         0.0439
@<TRIPOS>BOND
     1    1    2 1
     2    1   39 1
     3    1   40 1
     4    1   41 1
     5    2    6 1
     6    2    3 2
     7    3    4 1
     8    3   42 1
     9    4    5 2
    10    4   43 1
    11    5    6 1
    12    5    7 1
    13    7   12 ar
    14    7    8 ar
    15    8    9 ar
    16    9   10 ar
    17    9   20 1
    18   10   11 ar
    19   10   44 1
    20   11   12 ar
    21   11   13 1
    22   13   17 1
    23   13   14 1
    24   14   15 2
    25   14   19 1
    26   15   16 1
    27   15   45 1
    28   16   17 2
    29   16   18 1
    30   18   46 1
    31   18   47 1
    32   18   48 1
    33   19   49 1
    34   19   50 1
    35   19   51 1
    36   20   21 am
    37   20   52 1
    38   21   22 2
    39   21   23 1
    40   23   24 1
    41   23   53 1
    42   23   54 1
    43   24   25 1
    44   25   30 ar
    45   25   26 ar
    46   26   27 ar
    47   26   55 1
    48   27   28 ar
    49   27   56 1
    50   28   29 ar
    51   28   57 1
    52   29   30 ar
    53   29   31 1
    54   30   58 1
    55   31   32 1
    56   31   59 1
    57   31   60 1
    58   32   33 1
    59   32   61 1
    60   32   62 1
    61   33   38 1
    62   33   34 1
    63   34   35 1
    64   34   63 1
    65   34   64 1
    66   35   36 1
    67   35   65 1
    68   35   66 1
    69   36   37 1
    70   37   38 1
    71   37   67 1
    72   37   68 1
    73   38   69 1
    74   38   70 1
@<TRIPOS>MOLECULE
CHEMBL418564
   61    66     0     0     0
SMALL
USER_CHARGES

@<TRIPOS>ATOM
      1 C1         -0.0178    1.4648    0.0101 C.3       1 <0>         0.0240
      2 N1          0.0021   -0.0041    0.0020 N.3       1 <0>        -0.5422
      3 C2         -1.3591   -0.5485   -0.0908 C.3       1 <0>         0.0420
      4 C3         -1.2864   -2.0676   -0.2787 C.3       1 <0>         0.1211
      5 N2         -0.4627   -2.6330    0.8007 N.pl3     1 <0>        -0.9995
      6 C4          0.8636   -2.0457    1.0444 C.3       1 <0>         0.1214
      7 C5          0.7062   -0.5275    1.1802 C.3       1 <0>         0.0422
      8 S1         -1.0137   -3.8975    1.7170 S.o2      1 <0>         2.6893
      9 O1         -0.3116   -3.8411    2.9511 O.2       1 <0>        -0.9534
     10 O2         -2.4325   -3.8630    1.6455 O.2       1 <0>        -0.9529
     11 C6         -0.5051   -5.3820    0.9157 C.ar      1 <0>        -0.6766
     12 C7         -1.3225   -5.9718   -0.0304 C.ar      1 <0>        -0.0164
     13 C8         -0.9234   -7.1365   -0.6591 C.ar      1 <0>        -0.1316
     14 C9          0.2932   -7.7111   -0.3421 C.ar      1 <0>        -0.0274
     15 C10         1.1110   -7.1208    0.6033 C.ar      1 <0>        -0.1318
     16 C11         0.7139   -5.9538    1.2289 C.ar      1 <0>        -0.0170
     17 C12         0.7278   -8.9813   -1.0267 C.3       1 <0>        -0.1054
     18 C13         1.5114   -8.6350   -2.2944 C.3       1 <0>         0.1456
     19 N3          1.9339   -9.8698   -2.9600 N.pl3     1 <0>        -0.3568
     20 C14         3.1001  -10.5385   -2.7369 C.2       1 <0>         0.3710
     21 C15         3.0877  -11.6566   -3.5847 C.2       1 <0>        -0.2663
     22 C16         1.8818  -11.6200   -4.3075 C.2       1 <0>         0.1330
     23 N4          1.2062  -10.5693   -3.9306 N.2       1 <0>        -0.2631
     24 C17         4.2385  -12.5596   -3.5478 C.2       1 <0>         0.4063
     25 N5          4.5608  -13.6685   -4.1806 N.2       1 <0>        -0.5154
     26 C18         5.7574  -14.0961   -3.7580 C.2       1 <0>         0.3515
     27 N6          6.2193  -13.2629   -2.8447 N.2       1 <0>        -0.2992
     28 N7          5.2591  -12.2556   -2.6848 N.pl3     1 <0>        -0.3766
     29 C19         5.1787  -11.1432   -1.8984 C.2       1 <0>         0.6932
     30 N8          4.1496  -10.3326   -1.9291 N.2       1 <0>        -0.5629
     31 N9          6.2172  -10.8621   -1.0416 N.pl3     1 <0>        -0.8015
     32 C20         6.4511  -15.3094   -4.2384 C.2       1 <0>         0.0413
     33 C21         7.6626  -15.7566   -3.8136 C.2       1 <0>        -0.1364
     34 C22         7.9347  -16.9370   -4.5334 C.2       1 <0>        -0.2200
     35 C23         6.8867  -17.1497   -5.3534 C.2       1 <0>        -0.0034
     36 O3          5.9902  -16.1674   -5.1690 O.3       1 <0>        -0.1521
     37 H1          1.0047    1.8421    0.0024 H         1 <0>         0.0713
     38 H2         -0.5450    1.8259   -0.8730 H         1 <0>         0.0711
     39 H3         -0.5280    1.8163    0.9069 H         1 <0>         0.0273
     40 H4         -1.9051   -0.3210    0.8248 H         1 <0>         0.0422
     41 H5         -1.8727   -0.1009   -0.9417 H         1 <0>         0.0907
     42 H6         -2.2899   -2.4906   -0.2334 H         1 <0>         0.0984
     43 H7         -0.8330   -2.2960   -1.2432 H         1 <0>         0.0799
     44 H8          1.2814   -2.4543    1.9645 H         1 <0>         0.0982
     45 H9          1.5237   -2.2720    0.2071 H         1 <0>         0.0797
     46 H10         1.6905   -0.0647    1.2511 H         1 <0>         0.0904
     47 H11         0.1315   -0.3003    2.0781 H         1 <0>         0.0422
     48 H12        -2.2730   -5.5229   -0.2780 H         1 <0>         0.1414
     49 H13        -1.5623   -7.5976   -1.3977 H         1 <0>         0.1364
     50 H14         2.0614   -7.5699    0.8512 H         1 <0>         0.1354
     51 H15         1.3544   -5.4907    1.9648 H         1 <0>         0.1410
     52 H16         1.3622   -9.5581   -0.3537 H         1 <0>         0.0865
     53 H17        -0.1504   -9.5699   -1.2919 H         1 <0>         0.0909
     54 H18         0.8771   -8.0581   -2.9674 H         1 <0>         0.1055
     55 H19         2.3897   -8.0463   -2.0292 H         1 <0>         0.1031
     56 H20         1.5665  -12.3418   -5.0465 H         1 <0>         0.2031
     57 H21         6.9879  -11.4498   -1.0044 H         1 <0>         0.4268
     58 H22         6.1788  -10.0761   -0.4745 H         1 <0>         0.4305
     59 H23         8.2945  -15.2960   -3.0687 H         1 <0>         0.1600
     60 H24         8.8165  -17.5543   -4.4449 H         1 <0>         0.1596
     61 H25         6.7833  -17.9754   -6.0418 H         1 <0>         0.2144
@<TRIPOS>BOND
     1    1    2 1
     2    1   37 1
     3    1   38 1
     4    1   39 1
     5    2    7 1
     6    2    3 1
     7    3    4 1
     8    3   40 1
     9    3   41 1
    10    4    5 1
    11    4   42 1
    12    4   43 1
    13    5    6 1
    14    5    8 1
    15    6    7 1
    16    6   44 1
    17    6   45 1
    18    7   46 1
    19    7   47 1
    20    8    9 2
    21    8   10 2
    22    8   11 1
    23   11   16 ar
    24   11   12 ar
    25   12   13 ar
    26   12   48 1
    27   13   14 ar
    28   13   49 1
    29   14   15 ar
    30   14   17 1
    31   15   16 ar
    32   15   50 1
    33   16   51 1
    34   17   18 1
    35   17   52 1
    36   17   53 1
    37   18   19 1
    38   18   54 1
    39   18   55 1
    40   19   23 1
    41   19   20 1
    42   20   30 1
    43   20   21 2
    44   21   22 1
    45   21   24 1
    46   22   23 2
    47   22   56 1
    48   24   28 1
    49   24   25 2
    50   25   26 1
    51   26   27 2
    52   26   32 1
    53   27   28 1
    54   28   29 1
    55   29   30 2
    56   29   31 1
    57   31   57 1
    58   31   58 1
    59   32   36 1
    60   32   33 2
    61   33   34 1
    62   33   59 1
    63   34   35 2
    64   34   60 1
    65   35   36 1
    66   35   61 1
@<TRIPOS>MOLECULE
CHEMBL373026
   43    46     0     0     0
SMALL
USER_CHARGES

@<TRIPOS>ATOM
      1 C1         -0.0162    1.3434    0.0094 C.2       1 <0>        -0.2181
      2 C2          1.3251    1.7744   -0.0011 C.2       1 <0>        -0.1361
      3 C3          2.0961    0.6548   -0.0144 C.2       1 <0>         0.0413
      4 O1          1.2796   -0.4166   -0.0124 O.3       1 <0>        -0.1539
      5 C4          0.0021   -0.0041    0.0020 C.2       1 <0>        -0.0051
      6 C5          3.5735    0.6193   -0.0292 C.2       1 <0>         0.3302
      7 N1          4.3198   -0.4878   -0.0476 N.2       1 <0>        -0.4915
      8 C6          5.5988   -0.1621   -0.0576 C.2       1 <0>         0.2199
      9 C7          6.8395   -0.9374   -0.0778 C.2       1 <0>         0.4833
     10 N2          7.9911   -0.2989   -0.0834 N.2       1 <0>        -0.5100
     11 C8          8.0374    1.0452   -0.0708 C.2       1 <0>         0.0663
     12 C9          6.9030    1.7996   -0.0518 C.2       1 <0>         0.0733
     13 N3          5.6815    1.2046   -0.0451 N.pl3     1 <0>        -0.2546
     14 N4          4.3652    1.6797   -0.0320 N.2       1 <0>        -0.2753
     15 C10         9.3509    1.7204   -0.0772 C.2       1 <0>         0.5887
     16 O2          9.4103    2.9347   -0.0659 O.2       1 <0>        -0.5256
     17 N5         10.4837    0.9904   -0.0954 N.am      1 <0>        -0.7073
     18 C11        11.7867    1.6601   -0.1017 C.3       1 <0>         0.1225
     19 C12        12.8996    0.6104   -0.1229 C.3       1 <0>        -0.0907
     20 C13        14.2399    1.2993   -0.1294 C.ar      1 <0>        -0.0935
     21 C14        14.8393    1.6315   -1.3303 C.ar      1 <0>        -0.0956
     22 C15        16.0681    2.2627   -1.3390 C.ar      1 <0>        -0.1433
     23 C16        16.7005    2.5636   -0.1414 C.ar      1 <0>         0.1050
     24 C17        16.0968    2.2296    1.0622 C.ar      1 <0>        -0.1433
     25 C18        14.8655    1.6031    1.0656 C.ar      1 <0>        -0.0956
     26 O3         17.9096    3.1840   -0.1473 O.3       1 <0>        -0.5005
     27 N6          6.8032   -2.3228   -0.0905 N.pl3     1 <0>        -0.8035
     28 H1         -0.8931    1.9737    0.0252 H         1 <0>         0.1602
     29 H2          1.6735    2.7967    0.0008 H         1 <0>         0.1610
     30 H3         -0.8667   -0.6456    0.0069 H         1 <0>         0.2147
     31 H4          6.9751    2.8772   -0.0421 H         1 <0>         0.1940
     32 H5         10.4363    0.0216   -0.1044 H         1 <0>         0.4132
     33 H6         11.8662    2.2918   -0.9864 H         1 <0>         0.0750
     34 H7         11.8837    2.2745    0.7933 H         1 <0>         0.0750
     35 H8         12.8201   -0.0213    0.7618 H         1 <0>         0.0830
     36 H9         12.8025   -0.0040   -1.0180 H         1 <0>         0.0830
     37 H10        14.3465    1.3971   -2.2623 H         1 <0>         0.1282
     38 H11        16.5362    2.5214   -2.2772 H         1 <0>         0.1298
     39 H12        16.5871    2.4627    1.9958 H         1 <0>         0.1298
     40 H13        14.3931    1.3469    2.0023 H         1 <0>         0.1282
     41 H14        17.8563    4.1495   -0.1335 H         1 <0>         0.3924
     42 H15         5.9508   -2.7857   -0.0860 H         1 <0>         0.4248
     43 H16         7.6302   -2.8295   -0.1039 H         1 <0>         0.4207
@<TRIPOS>BOND
     1    1    5 2
     2    1    2 1
     3    1   28 1
     4    2    3 2
     5    2   29 1
     6    3    4 1
     7    3    6 1
     8    4    5 1
     9    5   30 1
    10    6   14 2
    11    6    7 1
    12    7    8 2
    13    8   13 1
    14    8    9 1
    15    9   10 2
    16    9   27 1
    17   10   11 1
    18   11   12 2
    19   11   15 1
    20   12   13 1
    21   12   31 1
    22   13   14 1
    23   15   16 2
    24   15   17 am
    25   17   18 1
    26   17   32 1
    27   18   19 1
    28   18   33 1
    29   18   34 1
    30   19   20 1
    31   19   35 1
    32   19   36 1
    33   20   25 ar
    34   20   21 ar
    35   21   22 ar
    36   21   37 1
    37   22   23 ar
    38   22   38 1
    39   23   24 ar
    40   23   26 1
    41   24   25 ar
    42   24   39 1
    43   25   40 1
    44   26   41 1
    45   27   42 1
    46   27   43 1
@<TRIPOS>MOLECULE
CHEMBL506250
   28    30     0     0     0
SMALL
USER_CHARGES

@<TRIPOS>ATOM
      1 C1         -0.0162    1.3446    0.0094 C.2       1 <0>        -0.2156
      2 C2          1.3234    1.7758   -0.0010 C.2       1 <0>        -0.1579
      3 C3          2.0961    0.6543   -0.0144 C.2       1 <0>        -0.0099
      4 O1          1.2788   -0.4172   -0.0124 O.3       1 <0>        -0.1619
      5 C4          0.0021   -0.0041    0.0020 C.2       1 <0>        -0.0171
      6 C5          3.5695    0.6187   -0.0287 C.ar      1 <0>         0.1290
      7 C6          4.2963    1.3804   -0.9453 C.ar      1 <0>        -0.1931
      8 C7          5.6882    1.3201   -0.9277 C.ar      1 <0>         0.2959
      9 N1          6.3327    0.5497   -0.0529 N.ar      1 <0>        -0.5268
     10 C8          5.6915   -0.1898    0.8346 C.ar      1 <0>         0.4717
     11 C9          4.2866   -0.1844    0.8908 C.ar      1 <0>        -0.1411
     12 C10         3.5930   -0.9817    1.8572 C.1       1 <0>         0.2554
     13 N2          3.0428   -1.6142    2.6238 N.1       1 <0>        -0.4024
     14 N3          6.4099   -0.9729    1.7215 N.pl3     1 <0>        -0.8318
     15 C11         6.4609    2.1223   -1.8942 C.2       1 <0>        -0.0033
     16 C12         7.8181    2.1597   -1.9978 C.2       1 <0>        -0.1301
     17 C13         8.1200    3.0491   -3.0460 C.2       1 <0>        -0.2232
     18 C14         6.9460    3.5070   -3.5268 C.2       1 <0>        -0.0081
     19 O2          5.9467    2.9415   -2.8324 O.3       1 <0>        -0.1647
     20 H1         -0.8933    1.9746    0.0252 H         1 <0>         0.1566
     21 H2          1.6714    2.7982    0.0011 H         1 <0>         0.1578
     22 H3         -0.8669   -0.6453    0.0074 H         1 <0>         0.2091
     23 H4          3.7857    2.0088   -1.6600 H         1 <0>         0.1549
     24 H5          7.3794   -0.9770    1.6895 H         1 <0>         0.4150
     25 H6          5.9439   -1.5176    2.3750 H         1 <0>         0.4134
     26 H7          8.5259    1.6128   -1.3927 H         1 <0>         0.1602
     27 H8          9.1057    3.3149   -3.3985 H         1 <0>         0.1562
     28 H9          6.8295    4.2096   -4.3387 H         1 <0>         0.2117
@<TRIPOS>BOND
     1    1    5 2
     2    1    2 1
     3    1   20 1
     4    2    3 2
     5    2   21 1
     6    3    4 1
     7    3    6 1
     8    4    5 1
     9    5   22 1
    10    6   11 ar
    11    6    7 ar
    12    7    8 ar
    13    7   23 1
    14    8    9 ar
    15    8   15 1
    16    9   10 ar
    17   10   11 ar
    18   10   14 1
    19   11   12 1
    20   12   13 3
    21   14   24 1
    22   14   25 1
    23   15   19 1
    24   15   16 2
    25   16   17 1
    26   16   26 1
    27   17   18 2
    28   17   27 1
    29   18   19 1
    30   18   28 1
@<TRIPOS>MOLECULE
CHEMBL447192
   31    33     0     0     0
SMALL
USER_CHARGES

@<TRIPOS>ATOM
      1 C1         -0.0167    1.3792    0.0096 C.ar      1 <0>        -0.0989
      2 C2          1.1686    2.0924    0.0021 C.ar      1 <0>        -0.1287
      3 C3          2.3774    1.4269   -0.0134 C.ar      1 <0>        -0.0692
      4 C4          2.4026    0.0330   -0.0211 C.ar      1 <0>        -0.0660
      5 C5          1.2048   -0.6804   -0.0130 C.ar      1 <0>        -0.0893
      6 C6          0.0021   -0.0041    0.0020 C.ar      1 <0>        -0.1254
      7 C7          3.6980   -0.6877   -0.0382 C.ar      1 <0>         0.2621
      8 C8          3.7057   -2.0777   -0.0514 C.ar      1 <0>        -0.2041
      9 C9          4.9287   -2.7533   -0.0676 C.ar      1 <0>         0.1270
     10 C10         6.1163   -1.9840   -0.0698 C.ar      1 <0>        -0.1430
     11 C11         6.0147   -0.5824   -0.0558 C.ar      1 <0>         0.4678
     12 N1          4.8312    0.0066   -0.0462 N.ar      1 <0>        -0.5331
     13 N2          7.1643    0.1885   -0.0577 N.pl3     1 <0>        -0.8335
     14 C12         7.3983   -2.6219   -0.0856 C.1       1 <0>         0.2554
     15 N3          8.4152   -3.1280   -0.0982 N.1       1 <0>        -0.4055
     16 C13         4.9802   -4.2261   -0.0814 C.2       1 <0>        -0.0059
     17 C14         5.7138   -4.9926   -0.9356 C.2       1 <0>        -0.1620
     18 C15         5.4644   -6.3342   -0.5917 C.2       1 <0>        -0.2133
     19 C16         4.6005   -6.3232    0.4441 C.2       1 <0>        -0.0186
     20 O1          4.3144   -5.0489    0.7525 O.3       1 <0>        -0.1595
     21 H1         -0.9603    1.9042    0.0260 H         1 <0>         0.1259
     22 H2          1.1479    3.1722    0.0081 H         1 <0>         0.1277
     23 H3          3.3021    1.9848   -0.0199 H         1 <0>         0.1370
     24 H4          1.2183   -1.7603   -0.0192 H         1 <0>         0.1303
     25 H5         -0.9264   -0.5557    0.0079 H         1 <0>         0.1289
     26 H6          2.7771   -2.6291   -0.0488 H         1 <0>         0.1510
     27 H7          8.0349   -0.2390   -0.0687 H         1 <0>         0.4121
     28 H8          7.0993    1.1563   -0.0481 H         1 <0>         0.4144
     29 H9          6.3615   -4.6391   -1.7242 H         1 <0>         0.1497
     30 H10         5.8851   -7.2077   -1.0675 H         1 <0>         0.1555
     31 H11         4.2072   -7.1955    0.9449 H         1 <0>         0.2113
@<TRIPOS>BOND
     1    1    6 ar
     2    1    2 ar
     3    1   21 1
     4    2    3 ar
     5    2   22 1
     6    3    4 ar
     7    3   23 1
     8    4    5 ar
     9    4    7 1
    10    5    6 ar
    11    5   24 1
    12    6   25 1
    13    7   12 ar
    14    7    8 ar
    15    8    9 ar
    16    8   26 1
    17    9   10 ar
    18    9   16 1
    19   10   11 ar
    20   10   14 1
    21   11   12 ar
    22   11   13 1
    23   13   27 1
    24   13   28 1
    25   14   15 3
    26   16   20 1
    27   16   17 2
    28   17   18 1
    29   17   29 1
    30   18   19 2
    31   18   30 1
    32   19   20 1
    33   19   31 1
@<TRIPOS>MOLECULE
CHEMBL178435
   37    40     0     0     0
SMALL
USER_CHARGES

@<TRIPOS>ATOM
      1 C1         -0.0184    1.5028    0.0103 C.3       1 <0>        -0.1157
      2 C2          0.0021   -0.0041    0.0020 C.ar      1 <0>        -0.0925
      3 C3          0.0057   -0.6864   -1.2015 C.ar      1 <0>        -0.0934
      4 C4          0.0245   -2.0697   -1.2144 C.ar      1 <0>        -0.1023
      5 C5          0.0395   -2.7714   -0.0278 C.ar      1 <0>        -0.0718
      6 C6          0.0365   -2.0938    1.1894 C.ar      1 <0>        -0.0668
      7 C7          0.0228   -0.6971    1.1941 C.ar      1 <0>        -0.0657
      8 C8          0.0554   -3.0746    2.2998 C.ar      1 <0>         0.2587
      9 C9          0.0702   -4.3674    1.7759 C.ar      1 <0>        -0.2525
     10 C10         0.0887   -5.4423    2.6396 C.ar      1 <0>         0.2285
     11 N1          0.0919   -5.2164    3.9458 N.ar      1 <0>        -0.5493
     12 C11         0.0776   -3.9794    4.4208 C.ar      1 <0>         0.5741
     13 N2          0.0604   -2.9227    3.6234 N.ar      1 <0>        -0.5589
     14 N3          0.0815   -3.7863    5.7914 N.pl3     1 <0>        -0.8195
     15 C12         0.1046   -6.8519    2.1068 C.3       1 <0>         0.1311
     16 C13        -1.2862   -7.4967    2.2897 C.3       1 <0>        -0.1414
     17 C14        -0.9242   -8.9506    2.6984 C.3       1 <0>        -0.1455
     18 C15         0.3698   -8.7126    3.5168 C.3       1 <0>         0.1223
     19 O1          1.0471   -7.6394    2.8439 O.3       1 <0>        -0.3384
     20 Br1         1.4856  -10.3313    3.5151 Br        1 <0>        -0.1292
     21 C16         0.0611   -4.2505    0.2741 C.3       1 <0>        -0.0265
     22 H1          1.0042    1.8801    0.0026 H         1 <0>         0.0732
     23 H2         -0.5455    1.8639   -0.8728 H         1 <0>         0.0698
     24 H3         -0.5286    1.8543    0.9071 H         1 <0>         0.0684
     25 H4         -0.0064   -0.1385   -2.1321 H         1 <0>         0.1319
     26 H5          0.0269   -2.6005   -2.1550 H         1 <0>         0.1319
     27 H6          0.0243   -0.1601    2.1311 H         1 <0>         0.1292
     28 H7          0.0946   -4.5504    6.3888 H         1 <0>         0.4161
     29 H8          0.0712   -2.8869    6.1545 H         1 <0>         0.4155
     30 H9          0.3744   -6.8449    1.0508 H         1 <0>         0.1123
     31 H10        -1.8436   -6.9981    3.0828 H         1 <0>         0.0874
     32 H11        -1.8455   -7.4845    1.3543 H         1 <0>         0.0982
     33 H12        -1.7056   -9.3905    3.3181 H         1 <0>         0.1014
     34 H13        -0.7267   -9.5675    1.8218 H         1 <0>         0.0964
     35 H14         0.1234   -8.4230    4.5384 H         1 <0>         0.1157
     36 H15        -0.8285   -4.7300   -0.1344 H         1 <0>         0.1029
     37 H16         0.9591   -4.7058   -0.1434 H         1 <0>         0.1042
@<TRIPOS>BOND
     1    1    2 1
     2    1   22 1
     3    1   23 1
     4    1   24 1
     5    2    7 ar
     6    2    3 ar
     7    3    4 ar
     8    3   25 1
     9    4    5 ar
    10    4   26 1
    11    5   21 1
    12    5    6 ar
    13    6    7 ar
    14    6    8 1
    15    7   27 1
    16    8   13 ar
    17    8    9 ar
    18    9   10 ar
    19    9   21 1
    20   10   11 ar
    21   10   15 1
    22   11   12 ar
    23   12   13 ar
    24   12   14 1
    25   14   28 1
    26   14   29 1
    27   15   19 1
    28   15   16 1
    29   15   30 1
    30   16   17 1
    31   16   31 1
    32   16   32 1
    33   17   18 1
    34   17   33 1
    35   17   34 1
    36   18   19 1
    37   18   20 1
    38   18   35 1
    39   21   36 1
    40   21   37 1
@<TRIPOS>MOLECULE
CHEMBL1086847
   28    31     0     0     0
SMALL
USER_CHARGES

@<TRIPOS>ATOM
      1 C1         -0.0167    1.3824    0.0096 C.ar      1 <0>        -0.0980
      2 C2          1.1644    2.0974    0.0022 C.ar      1 <0>        -0.1017
      3 C3          2.3816    1.4343   -0.0129 C.ar      1 <0>        -0.0543
      4 C4          2.4138    0.0464   -0.0207 C.ar      1 <0>        -0.1405
      5 C5          1.2127   -0.6823   -0.0131 C.ar      1 <0>        -0.0435
      6 C6          0.0021   -0.0041    0.0020 C.ar      1 <0>        -0.0659
      7 C7          1.5394   -2.1308   -0.0239 C.ar      1 <0>         0.3078
      8 C8          2.9419   -2.2728   -0.0381 C.ar      1 <0>        -0.3102
      9 C9          3.4867   -3.5680   -0.0502 C.ar      1 <0>         0.3748
     10 N1          2.6520   -4.6104   -0.0477 N.ar      1 <0>        -0.5685
     11 C10         1.3415   -4.4306   -0.0342 C.ar      1 <0>         0.6068
     12 N2          0.7883   -3.2215   -0.0225 N.ar      1 <0>        -0.5549
     13 N3          0.5189   -5.5378   -0.0322 N.pl3     1 <0>        -0.8029
     14 C11         4.9479   -3.7717   -0.0657 C.2       1 <0>         0.0511
     15 N4          5.9223   -2.8709   -0.0649 N.2       1 <0>        -0.4085
     16 C12         7.1628   -3.2934   -0.0808 C.2       1 <0>         0.0048
     17 C13         7.4217   -4.6257   -0.0976 C.2       1 <0>        -0.2579
     18 S1          5.8771   -5.2956   -0.0828 S.3       1 <0>         0.2084
     19 C14         3.5357   -0.9262   -0.0366 C.2       1 <0>         0.4498
     20 O1          4.7212   -0.6603   -0.0469 O.2       1 <0>        -0.3741
     21 H1         -0.9611    1.9062    0.0260 H         1 <0>         0.1394
     22 H2          1.1399    3.1771    0.0079 H         1 <0>         0.1398
     23 H3          3.3037    1.9965   -0.0191 H         1 <0>         0.1401
     24 H4         -0.9260   -0.5564    0.0082 H         1 <0>         0.1395
     25 H5          0.9039   -6.4280   -0.0406 H         1 <0>         0.4215
     26 H6         -0.4446   -5.4261   -0.0224 H         1 <0>         0.4213
     27 H7          7.9767   -2.5835   -0.0809 H         1 <0>         0.1722
     28 H8          8.3771   -5.1289   -0.1118 H         1 <0>         0.2038
@<TRIPOS>BOND
     1    1    6 ar
     2    1    2 ar
     3    1   21 1
     4    2    3 ar
     5    2   22 1
     6    3    4 ar
     7    3   23 1
     8    4   19 1
     9    4    5 ar
    10    5    6 ar
    11    5    7 1
    12    6   24 1
    13    7   12 ar
    14    7    8 ar
    15    8    9 ar
    16    8   19 1
    17    9   10 ar
    18    9   14 1
    19   10   11 ar
    20   11   12 ar
    21   11   13 1
    22   13   25 1
    23   13   26 1
    24   14   18 1
    25   14   15 2
    26   15   16 1
    27   16   17 2
    28   16   27 1
    29   17   18 1
    30   17   28 1
    31   19   20 2
@<TRIPOS>MOLECULE
CHEMBL176144
   61    65     0     0     0
SMALL
USER_CHARGES

@<TRIPOS>ATOM
      1 C1         -0.0632    1.5404    0.0441 C.3       1 <0>        -0.1523
      2 C2         -0.0249    0.0110    0.0254 C.3       1 <0>        -0.1221
      3 C3          0.7141   -0.4958    1.2655 C.3       1 <0>        -0.1191
      4 C4          0.7523   -2.0252    1.2469 C.3       1 <0>         0.0838
      5 O1          1.4425   -2.4986    2.4051 O.3       1 <0>        -0.3636
      6 C5          1.5646   -3.8325    2.5412 C.2       1 <0>         0.6513
      7 O2          1.0980   -4.5744    1.6996 O.2       1 <0>        -0.5686
      8 N1          2.2046   -4.3449    3.6110 N.am      1 <0>        -0.5938
      9 C6          2.7686   -3.4599    4.6399 C.3       1 <0>         0.0961
     10 C7          2.1934   -3.8641    6.0029 C.3       1 <0>         0.1067
     11 N2          2.3392   -5.3179    6.1618 N.pl3     1 <0>        -0.6301
     12 C8          1.7751   -6.2029    5.1329 C.3       1 <0>         0.1065
     13 C9          2.3454   -5.7989    3.7727 C.3       1 <0>         0.1120
     14 C10         3.0024   -5.8490    7.2706 C.ar      1 <0>         0.2112
     15 C11         3.6314   -5.0021    8.1760 C.ar      1 <0>        -0.1775
     16 C12         4.2886   -5.5234    9.2741 C.ar      1 <0>        -0.0731
     17 C13         4.3246   -6.8883    9.4788 C.ar      1 <0>        -0.1434
     18 C14         3.6966   -7.7459    8.5761 C.ar      1 <0>        -0.0097
     19 C15         3.0288   -7.2207    7.4716 C.ar      1 <0>        -0.1492
     20 C16         3.7342   -9.2114    8.7941 C.2       1 <0>         0.2513
     21 C17         4.3883   -9.7285    9.8977 C.2       1 <0>        -0.2139
     22 C18         4.4040  -11.1240   10.0741 C.2       1 <0>         0.3530
     23 N3          4.9234  -11.9233   10.9926 N.2       1 <0>        -0.5236
     24 C19         4.6470  -13.1952   10.6876 C.2       1 <0>         0.3537
     25 N4          3.9457  -13.2350    9.5688 N.2       1 <0>        -0.3216
     26 N5          3.7712  -11.9111    9.1459 N.pl3     1 <0>        -0.3616
     27 C20         3.1450  -11.3376    8.0810 C.2       1 <0>         0.6531
     28 N6          3.1287  -10.0338    7.9234 N.2       1 <0>        -0.5488
     29 N7          2.5144  -12.1376    7.1569 N.pl3     1 <0>        -0.8079
     30 C21         5.0613  -14.3730   11.4787 C.2       1 <0>         0.0364
     31 C22         5.7774  -14.3463   12.6339 C.2       1 <0>        -0.1267
     32 C23         5.9432  -15.6853   13.0397 C.2       1 <0>        -0.2189
     33 C24         5.3264  -16.4552   12.1216 C.2       1 <0>        -0.0078
     34 O3          4.7898  -15.6589   11.1833 O.3       1 <0>        -0.1607
     35 H1          0.9551    1.9293    0.0445 H         1 <0>         0.0561
     36 H2         -0.5896    1.9015   -0.8394 H         1 <0>         0.0583
     37 H3         -0.5822    1.8800    0.9404 H         1 <0>         0.0561
     38 H4         -1.0432   -0.3779    0.0250 H         1 <0>         0.0662
     39 H5          0.4941   -0.3286   -0.8709 H         1 <0>         0.0663
     40 H6          1.7323   -0.1069    1.2659 H         1 <0>         0.0744
     41 H7          0.1951   -0.1563    2.1619 H         1 <0>         0.0744
     42 H8         -0.2660   -2.4142    1.2464 H         1 <0>         0.0684
     43 H9          1.2713   -2.3648    0.3505 H         1 <0>         0.0684
     44 H10         3.8537   -3.5625    4.6557 H         1 <0>         0.0775
     45 H11         2.4995   -2.4266    4.4211 H         1 <0>         0.1035
     46 H12         2.7388   -3.3530    6.7963 H         1 <0>         0.0994
     47 H13         1.1381   -3.5951    6.0490 H         1 <0>         0.0698
     48 H14         2.0443   -7.2362    5.3517 H         1 <0>         0.1021
     49 H15         0.6901   -6.1004    5.1171 H         1 <0>         0.0697
     50 H16         1.7969   -6.3098    2.9814 H         1 <0>         0.1074
     51 H17         3.3997   -6.0717    3.7254 H         1 <0>         0.0784
     52 H18         3.6067   -3.9336    8.0205 H         1 <0>         0.1268
     53 H19         4.7760   -4.8611    9.9743 H         1 <0>         0.1298
     54 H20         4.8396   -7.2919   10.3380 H         1 <0>         0.1294
     55 H21         2.5367   -7.8802    6.7721 H         1 <0>         0.1373
     56 H22         4.8758   -9.0763   10.6071 H         1 <0>         0.1686
     57 H23         2.5182  -13.1014    7.2669 H         1 <0>         0.4244
     58 H24         2.0658  -11.7382    6.3953 H         1 <0>         0.4292
     59 H25         6.1480  -13.4683   13.1421 H         1 <0>         0.1633
     60 H26         6.4657  -16.0295   13.9199 H         1 <0>         0.1597
     61 H27         5.2695  -17.5336   12.1399 H         1 <0>         0.2133
@<TRIPOS>BOND
     1    1    2 1
     2    1   35 1
     3    1   36 1
     4    1   37 1
     5    2    3 1
     6    2   38 1
     7    2   39 1
     8    3    4 1
     9    3   40 1
    10    3   41 1
    11    4    5 1
    12    4   42 1
    13    4   43 1
    14    5    6 1
    15    6    7 2
    16    6    8 am
    17    8   13 1
    18    8    9 1
    19    9   10 1
    20    9   44 1
    21    9   45 1
    22   10   11 1
    23   10   46 1
    24   10   47 1
    25   11   12 1
    26   11   14 1
    27   12   13 1
    28   12   48 1
    29   12   49 1
    30   13   50 1
    31   13   51 1
    32   14   19 ar
    33   14   15 ar
    34   15   16 ar
    35   15   52 1
    36   16   17 ar
    37   16   53 1
    38   17   18 ar
    39   17   54 1
    40   18   19 ar
    41   18   20 1
    42   19   55 1
    43   20   28 1
    44   20   21 2
    45   21   22 1
    46   21   56 1
    47   22   26 1
    48   22   23 2
    49   23   24 1
    50   24   25 2
    51   24   30 1
    52   25   26 1
    53   26   27 1
    54   27   28 2
    55   27   29 1
    56   29   57 1
    57   29   58 1
    58   30   34 1
    59   30   31 2
    60   31   32 1
    61   31   59 1
    62   32   33 2
    63   32   60 1
    64   33   34 1
    65   33   61 1
@<TRIPOS>MOLECULE
CHEMBL469893
   57    63     0     0     0
SMALL
USER_CHARGES

@<TRIPOS>ATOM
      1 C1         -0.0162    1.3433    0.0094 C.2       1 <0>        -0.2205
      2 C2          1.3252    1.7744   -0.0011 C.2       1 <0>        -0.1273
      3 C3          2.0962    0.6548   -0.0144 C.2       1 <0>         0.0276
      4 O1          1.2797   -0.4166   -0.0124 O.3       1 <0>        -0.1521
      5 C4          0.0021   -0.0041    0.0020 C.2       1 <0>         0.0053
      6 C5          3.5736    0.6193   -0.0287 C.2       1 <0>         0.3635
      7 N1          4.3223   -0.4908   -0.0472 N.2       1 <0>        -0.5061
      8 C6          5.5979   -0.1638   -0.0558 C.2       1 <0>         0.4004
      9 C7          6.8494   -0.9218   -0.0750 C.2       1 <0>        -0.2579
     10 C8          7.1770   -2.2895   -0.0925 C.2       1 <0>         0.1540
     11 N2          8.4769   -2.4024   -0.1057 N.2       1 <0>        -0.2686
     12 N3          9.0564   -1.1275   -0.0976 N.pl3     1 <0>        -0.3748
     13 C9          8.0548   -0.2036   -0.0786 C.2       1 <0>         0.3755
     14 N4          8.0263    1.1363   -0.0638 N.2       1 <0>        -0.5795
     15 C10         6.9037    1.8122   -0.0459 C.2       1 <0>         0.7058
     16 N5          5.6820    1.2042   -0.0426 N.pl3     1 <0>        -0.3788
     17 N6          4.3634    1.6766   -0.0311 N.2       1 <0>        -0.2938
     18 N7          6.9590    3.1863   -0.0316 N.pl3     1 <0>        -0.7945
     19 C11        10.4923   -0.8370   -0.1068 C.3       1 <0>         0.1242
     20 C12        10.9797   -0.7205   -1.5524 C.3       1 <0>        -0.0294
     21 N8         12.4195   -0.4292   -1.5616 N.4       1 <0>        -0.3806
     22 C13        12.8686   -0.2105   -2.9451 C.3       1 <0>        -0.0002
     23 C14        14.2763    0.3859   -2.9136 C.3       1 <0>        -0.0942
     24 C15        15.1673   -0.4559   -2.0344 C.ar      1 <0>         0.1192
     25 C16        14.6372   -1.3605   -1.1393 C.ar      1 <0>        -0.1814
     26 C17        15.4957   -2.1117   -0.3463 C.ar      1 <0>        -0.0441
     27 C18        16.8618   -1.9268   -0.4852 C.ar      1 <0>        -0.0805
     28 C19        17.3221   -1.0040   -1.4050 C.ar      1 <0>         0.1293
     29 N9         16.4786   -0.3084   -2.1389 N.ar      1 <0>        -0.4636
     30 C20        17.8305   -2.7201    0.3534 C.3       1 <0>        -0.1338
     31 C21        19.3069   -2.3229    0.2931 C.3       1 <0>        -0.1692
     32 C22        18.8335   -3.6127   -0.3802 C.3       1 <0>        -0.1607
     33 C23        13.1536   -1.5652   -0.9962 C.3       1 <0>         0.0463
     34 H1         -0.8931    1.9736    0.0252 H         1 <0>         0.1623
     35 H2          1.6736    2.7966    0.0006 H         1 <0>         0.1610
     36 H3         -0.8667   -0.6456    0.0076 H         1 <0>         0.2173
     37 H4          6.4721   -3.1077   -0.0946 H         1 <0>         0.2094
     38 H5          7.8178    3.6373   -0.0348 H         1 <0>         0.4313
     39 H6          6.1392    3.7046   -0.0183 H         1 <0>         0.4314
     40 H7         10.6764    0.1019    0.4155 H         1 <0>         0.1187
     41 H8         11.0292   -1.6426    0.3939 H         1 <0>         0.1208
     42 H9         10.7956   -1.6593   -2.0747 H         1 <0>         0.1436
     43 H10        10.4428    0.0852   -2.0531 H         1 <0>         0.1415
     44 H11        12.8859   -1.1608   -3.4786 H         1 <0>         0.1370
     45 H12        12.1898    0.4803   -3.4451 H         1 <0>         0.1443
     46 H13        14.6826    0.4095   -3.9248 H         1 <0>         0.1350
     47 H14        14.2313    1.4007   -2.5182 H         1 <0>         0.1128
     48 H15        15.1060   -2.8253    0.3646 H         1 <0>         0.1493
     49 H16        18.3847   -0.8514   -1.5230 H         1 <0>         0.1697
     50 H17        17.4435   -3.0767    1.3080 H         1 <0>         0.1228
     51 H18        19.5774   -1.4879   -0.3532 H         1 <0>         0.1012
     52 H19        19.8914   -2.4181    1.2081 H         1 <0>         0.1087
     53 H20        19.1066   -4.5564    0.0920 H         1 <0>         0.1077
     54 H21        18.7926   -3.6262   -1.4693 H         1 <0>         0.0989
     55 H22        12.9048   -1.6638    0.0605 H         1 <0>         0.1418
     56 H23        12.8643   -2.4765   -1.5195 H         1 <0>         0.1452
     57 H24        12.6004    0.3972   -1.0118 H         1 <0>         0.4286
@<TRIPOS>BOND
     1    1    5 2
     2    1    2 1
     3    1   34 1
     4    2    3 2
     5    2   35 1
     6    3    4 1
     7    3    6 1
     8    4    5 1
     9    5   36 1
    10    6   17 2
    11    6    7 1
    12    7    8 2
    13    8   16 1
    14    8    9 1
    15    9   13 2
    16    9   10 1
    17   10   11 2
    18   10   37 1
    19   11   12 1
    20   12   13 1
    21   12   19 1
    22   13   14 1
    23   14   15 2
    24   15   16 1
    25   15   18 1
    26   16   17 1
    27   18   38 1
    28   18   39 1
    29   19   20 1
    30   19   40 1
    31   19   41 1
    32   20   21 1
    33   20   42 1
    34   20   43 1
    35   21   33 1
    36   21   22 1
    37   21   57 1
    38   22   23 1
    39   22   44 1
    40   22   45 1
    41   23   24 1
    42   23   46 1
    43   23   47 1
    44   24   29 ar
    45   24   25 ar
    46   25   26 ar
    47   25   33 1
    48   26   27 ar
    49   26   48 1
    50   27   28 ar
    51   27   30 1
    52   28   29 ar
    53   28   49 1
    54   30   32 1
    55   30   31 1
    56   30   50 1
    57   31   32 1
    58   31   51 1
    59   31   52 1
    60   32   53 1
    61   32   54 1
    62   33   55 1
    63   33   56 1
@<TRIPOS>MOLECULE
CHEMBL573589
   44    48     0     0     0
SMALL
USER_CHARGES

@<TRIPOS>ATOM
      1 C1         -0.0178    1.4608    0.0101 C.3       1 <0>         0.0924
      2 N1          0.0021   -0.0041    0.0020 N.pl3     1 <0>        -0.3385
      3 C2          0.0075   -0.7717   -1.1017 C.2       1 <0>         0.1595
      4 C3          0.0279   -2.0824   -0.7006 C.2       1 <0>        -0.2669
      5 C4          0.0351   -2.0761    0.7711 C.2       1 <0>         0.3014
      6 N2          0.0244   -0.8157    1.1423 N.2       1 <0>        -0.2498
      7 N3          0.0552   -3.2685    1.4228 N.2       1 <0>        -0.4470
      8 C5          0.0680   -4.4037    0.7820 C.2       1 <0>         0.6549
      9 N4          0.0632   -4.5077   -0.5829 N.pl3     1 <0>        -0.3751
     10 C6          0.0430   -3.3883   -1.3713 C.2       1 <0>         0.4123
     11 N5          0.0419   -3.7748   -2.6273 N.2       1 <0>        -0.5108
     12 C7          0.0602   -5.1134   -2.6865 C.2       1 <0>         0.3469
     13 N6          0.0752   -5.6011   -1.4615 N.2       1 <0>        -0.2923
     14 C8          0.0650   -5.9156   -3.9276 C.2       1 <0>         0.0422
     15 C9          0.0781   -7.2731   -4.0001 C.2       1 <0>        -0.1361
     16 C10         0.0771   -7.6064   -5.3692 C.2       1 <0>        -0.2192
     17 C11         0.0637   -6.4481   -6.0575 C.2       1 <0>        -0.0042
     18 O1          0.0513   -5.4287   -5.1835 O.3       1 <0>        -0.1532
     19 N7          0.0881   -5.5694    1.5234 N.am      1 <0>        -0.6421
     20 C12         0.0940   -5.5115    2.8699 C.2       1 <0>         0.5096
     21 O2          0.0816   -4.4364    3.4307 O.2       1 <0>        -0.4166
     22 C13         0.1159   -6.7830    3.6786 C.3       1 <0>         0.0504
     23 O3          0.1182   -6.4619    5.0711 O.3       1 <0>        -0.2890
     24 C14         0.1372   -7.5030    5.9443 C.ar      1 <0>         0.1259
     25 C15         0.1591   -8.8068    5.4707 C.ar      1 <0>        -0.2108
     26 C16         0.1789   -9.8634    6.3604 C.ar      1 <0>        -0.0797
     27 C17         0.1764   -9.6224    7.7219 C.ar      1 <0>        -0.1550
     28 C18         0.1542   -8.3239    8.1965 C.ar      1 <0>        -0.0788
     29 C19         0.1406   -7.2637    7.3109 C.ar      1 <0>        -0.1449
     30 H1          1.0048    1.8381    0.0023 H         1 <0>         0.0898
     31 H2         -0.5450    1.8219   -0.8730 H         1 <0>         0.1012
     32 H3         -0.5280    1.8123    0.9069 H         1 <0>         0.1021
     33 H4         -0.0031   -0.4187   -2.1224 H         1 <0>         0.2024
     34 H5          0.0877   -7.9627   -3.1690 H         1 <0>         0.1607
     35 H6          0.0856   -8.6020   -5.7876 H         1 <0>         0.1597
     36 H7          0.0598   -6.3550   -7.1335 H         1 <0>         0.2141
     37 H8          0.0980   -6.4294    1.0748 H         1 <0>         0.4319
     38 H9         -0.7670   -7.3778    3.4444 H         1 <0>         0.1033
     39 H10         1.0128   -7.3527    3.4356 H         1 <0>         0.1033
     40 H11         0.1603   -8.9956    4.4073 H         1 <0>         0.1282
     41 H12         0.1959  -10.8785    5.9922 H         1 <0>         0.1268
     42 H13         0.1915  -10.4498    8.4159 H         1 <0>         0.1256
     43 H14         0.1520   -8.1382    9.2604 H         1 <0>         0.1318
     44 H15         0.1277   -6.2496    7.6820 H         1 <0>         0.1340
@<TRIPOS>BOND
     1    1    2 1
     2    1   30 1
     3    1   31 1
     4    1   32 1
     5    2    6 1
     6    2    3 1
     7    3    4 2
     8    3   33 1
     9    4   10 1
    10    4    5 1
    11    5    6 2
    12    5    7 1
    13    7    8 2
    14    8    9 1
    15    8   19 1
    16    9   13 1
    17    9   10 1
    18   10   11 2
    19   11   12 1
    20   12   13 2
    21   12   14 1
    22   14   18 1
    23   14   15 2
    24   15   16 1
    25   15   34 1
    26   16   17 2
    27   16   35 1
    28   17   18 1
    29   17   36 1
    30   19   20 am
    31   19   37 1
    32   20   21 2
    33   20   22 1
    34   22   23 1
    35   22   38 1
    36   22   39 1
    37   23   24 1
    38   24   29 ar
    39   24   25 ar
    40   25   26 ar
    41   25   40 1
    42   26   27 ar
    43   26   41 1
    44   27   28 ar
    45   27   42 1
    46   28   29 ar
    47   28   43 1
    48   29   44 1
@<TRIPOS>MOLECULE
CHEMBL363647
   45    48     0     0     0
SMALL
USER_CHARGES

@<TRIPOS>ATOM
      1 C1         -0.0167    1.3781    0.0096 C.ar      1 <0>        -0.1240
      2 C2          1.1709    2.0855    0.0021 C.ar      1 <0>        -0.1183
      3 C3          2.3773    1.4107   -0.0130 C.ar      1 <0>        -0.1171
      4 C4          2.3960    0.0285   -0.0201 C.ar      1 <0>        -0.0835
      5 C5          1.2084   -0.6789   -0.0117 C.ar      1 <0>        -0.1171
      6 C6          0.0021   -0.0041    0.0020 C.ar      1 <0>        -0.1182
      7 C7          3.7112   -0.7071   -0.0376 C.3       1 <0>        -0.0779
      8 C8          4.1714   -0.9633    1.3989 C.3       1 <0>        -0.1257
      9 C9          5.5066   -1.7102    1.3812 C.3       1 <0>         0.1164
     10 N1          5.9472   -1.9554    2.7567 N.am      1 <0>        -0.7064
     11 C10         7.1061   -2.6035    2.9876 C.2       1 <0>         0.5880
     12 O1          7.7859   -2.9846    2.0544 O.2       1 <0>        -0.5266
     13 C11         7.5503   -2.8508    4.3742 C.2       1 <0>         0.0666
     14 C12         8.7275   -3.5026    4.5882 C.2       1 <0>         0.0729
     15 N2          9.1601   -3.7433    5.8535 N.pl3     1 <0>        -0.2544
     16 C13         8.4027   -3.3246    6.9146 C.2       1 <0>         0.2199
     17 C14         7.1450   -2.6276    6.6439 C.2       1 <0>         0.4830
     18 N3          6.7854   -2.4220    5.3939 N.2       1 <0>        -0.5099
     19 N4          6.3464   -2.1866    7.6873 N.pl3     1 <0>        -0.8036
     20 N5          9.0320   -3.6741    8.0209 N.2       1 <0>        -0.4916
     21 C15        10.1685   -4.3035    7.7125 C.2       1 <0>         0.3299
     22 N6         10.2883   -4.3688    6.3962 N.2       1 <0>        -0.2754
     23 C16        11.1398   -4.8419    8.6876 C.2       1 <0>         0.0415
     24 C17        12.3023   -5.4794    8.3868 C.2       1 <0>        -0.1362
     25 C18        12.9083   -5.8183    9.6127 C.2       1 <0>        -0.2180
     26 C19        12.0943   -5.3754   10.5912 C.2       1 <0>        -0.0053
     27 O2         11.0299   -4.7811   10.0288 O.3       1 <0>        -0.1539
     28 H1         -0.9591    1.9053    0.0259 H         1 <0>         0.1211
     29 H2          1.1563    3.1654    0.0076 H         1 <0>         0.1217
     30 H3          3.3051    1.9634   -0.0196 H         1 <0>         0.1215
     31 H4          1.2231   -1.7588   -0.0176 H         1 <0>         0.1215
     32 H5         -0.9258   -0.5567    0.0082 H         1 <0>         0.1217
     33 H6          3.5884   -1.6586   -0.5549 H         1 <0>         0.0774
     34 H7          4.4573   -0.1052   -0.5563 H         1 <0>         0.0774
     35 H8          4.2941   -0.0118    1.9163 H         1 <0>         0.0733
     36 H9          3.4252   -1.5652    1.9176 H         1 <0>         0.0733
     37 H10         5.3838   -2.6617    0.8639 H         1 <0>         0.0740
     38 H11         6.2527   -1.1082    0.8625 H         1 <0>         0.0740
     39 H12         5.4048   -1.6514    3.5012 H         1 <0>         0.4130
     40 H13         9.3202   -3.8302    3.7469 H         1 <0>         0.1941
     41 H14         6.6198   -2.3393    8.6053 H         1 <0>         0.4248
     42 H15         5.5140   -1.7253    7.4995 H         1 <0>         0.4206
     43 H16        12.6867   -5.6865    7.3990 H         1 <0>         0.1610
     44 H17        13.8474   -6.3354    9.7435 H         1 <0>         0.1601
     45 H18        12.2711   -5.4776   11.6517 H         1 <0>         0.2147
@<TRIPOS>BOND
     1    1    6 ar
     2    1    2 ar
     3    1   28 1
     4    2    3 ar
     5    2   29 1
     6    3    4 ar
     7    3   30 1
     8    4    5 ar
     9    4    7 1
    10    5    6 ar
    11    5   31 1
    12    6   32 1
    13    7    8 1
    14    7   33 1
    15    7   34 1
    16    8    9 1
    17    8   35 1
    18    8   36 1
    19    9   10 1
    20    9   37 1
    21    9   38 1
    22   10   11 am
    23   10   39 1
    24   11   12 2
    25   11   13 1
    26   13   18 1
    27   13   14 2
    28   14   15 1
    29   14   40 1
    30   15   22 1
    31   15   16 1
    32   16   17 1
    33   16   20 2
    34   17   18 2
    35   17   19 1
    36   19   41 1
    37   19   42 1
    38   20   21 1
    39   21   22 2
    40   21   23 1
    41   23   27 1
    42   23   24 2
    43   24   25 1
    44   24   43 1
    45   25   26 2
    46   25   44 1
    47   26   27 1
    48   26   45 1
@<TRIPOS>MOLECULE
CHEMBL275605
   64    67     0     0     0
SMALL
USER_CHARGES

@<TRIPOS>ATOM
      1 C1         -0.0187    1.5258    0.0104 C.3       1 <0>        -0.1471
      2 C2          0.0021   -0.0041    0.0020 C.3       1 <0>        -0.1385
      3 C3         -1.4333   -0.5336    0.0129 C.3       1 <0>         0.1190
      4 N1         -1.4134   -1.9985    0.0048 N.am      1 <0>        -0.5083
      5 C4         -1.3926   -2.6971    1.2022 C.2       1 <0>         0.3301
      6 C5         -1.3740   -4.0878    1.1662 C.2       1 <0>        -0.1473
      7 C6         -1.3769   -4.7431   -0.0825 C.2       1 <0>         0.5933
      8 O1         -1.3613   -5.9599   -0.1397 O.2       1 <0>        -0.5108
      9 N2         -1.3976   -4.0074   -1.2132 N.am      1 <0>        -0.5485
     10 C7         -1.4210   -2.6643   -1.1652 C.2       1 <0>         0.7077
     11 O2         -1.4448   -2.0346   -2.2051 O.2       1 <0>        -0.5285
     12 C8         -1.4003   -4.6827   -2.5132 C.3       1 <0>         0.1138
     13 C9         -2.8435   -4.9380   -2.9524 C.3       1 <0>        -0.1379
     14 C10        -2.8462   -5.6433   -4.3101 C.3       1 <0>        -0.1473
     15 N3         -1.3557   -4.5135    2.4813 N.pl3     1 <0>        -0.5165
     16 C11        -1.3636   -3.3941    3.2571 C.2       1 <0>         0.3501
     17 N4         -1.3855   -2.3271    2.4822 N.2       1 <0>        -0.4857
     18 H1         -1.3406   -5.4324    2.7917 H         1 <0>         0.4364
     19 C12        -1.3506   -3.3777    4.7338 C.ar      1 <0>        -0.0780
     20 C13        -1.3225   -4.5782    5.4473 C.ar      1 <0>        -0.0538
     21 C14        -1.3105   -4.5586    6.8248 C.ar      1 <0>        -0.1433
     22 C15        -1.3267   -3.3469    7.5043 C.ar      1 <0>         0.1550
     23 C16        -1.3551   -2.1506    6.7984 C.ar      1 <0>        -0.2121
     24 C17        -1.3606   -2.1615    5.4207 C.ar      1 <0>        -0.0183
     25 O3         -1.3153   -3.3318    8.8621 O.3       1 <0>        -0.2838
     26 C18        -1.3331   -2.0517    9.4968 C.3       1 <0>         0.0386
     27 C19        -1.3169   -2.2325   10.9929 C.2       1 <0>         0.5153
     28 O4         -1.2924   -3.3478   11.4687 O.2       1 <0>        -0.5114
     29 N5         -1.3296   -1.1548   11.8021 N.am      1 <0>        -0.7229
     30 C20        -1.3138   -1.3305   13.2564 C.3       1 <0>         0.1636
     31 C21        -1.3326    0.0195   13.9258 C.ar      1 <0>        -0.1143
     32 C22        -0.1444    0.6631   14.2174 C.ar      1 <0>        -0.0999
     33 C23        -0.1617    1.9014   14.8314 C.ar      1 <0>        -0.1212
     34 C24        -1.3672    2.4965   15.1534 C.ar      1 <0>        -0.1092
     35 C25        -2.5554    1.8533   14.8611 C.ar      1 <0>        -0.1212
     36 C26        -2.5382    0.6169   14.2432 C.ar      1 <0>        -0.0999
     37 H2          1.0039    1.9031    0.0027 H         1 <0>         0.0607
     38 H3         -0.5459    1.8868   -0.8726 H         1 <0>         0.0589
     39 H4         -0.5289    1.8773    0.9072 H         1 <0>         0.0586
     40 H5          0.5123   -0.3556   -0.8948 H         1 <0>         0.0681
     41 H6          0.5293   -0.3651    0.8851 H         1 <0>         0.0681
     42 H7         -1.9435   -0.1821    0.9097 H         1 <0>         0.0986
     43 H8         -1.9605   -0.1726   -0.8702 H         1 <0>         0.1006
     44 H9         -0.9020   -4.0534   -3.2506 H         1 <0>         0.1034
     45 H10        -0.8724   -5.6328   -2.4302 H         1 <0>         0.1017
     46 H11        -3.3418   -5.5673   -2.2150 H         1 <0>         0.0673
     47 H12        -3.3714   -3.9880   -3.0355 H         1 <0>         0.0693
     48 H13        -2.3479   -5.0140   -5.0475 H         1 <0>         0.0598
     49 H14        -2.3183   -6.5933   -4.2271 H         1 <0>         0.0589
     50 H15        -3.8744   -5.8251   -4.6230 H         1 <0>         0.0615
     51 H16        -1.3106   -5.5206    4.9198 H         1 <0>         0.1318
     52 H17        -1.2888   -5.4864    7.3772 H         1 <0>         0.1440
     53 H18        -1.3684   -1.2108    7.3303 H         1 <0>         0.1388
     54 H19        -1.3774   -1.2310    4.8727 H         1 <0>         0.1460
     55 H20        -0.4560   -1.4818    9.1902 H         1 <0>         0.0987
     56 H21        -2.2356   -1.5143    9.2056 H         1 <0>         0.0986
     57 H22        -1.3491   -0.2627   11.4216 H         1 <0>         0.4040
     58 H23        -2.1909   -1.9004   13.5631 H         1 <0>         0.0802
     59 H24        -0.4113   -1.8679   13.5477 H         1 <0>         0.0802
     60 H25         0.7973    0.1982   13.9657 H         1 <0>         0.1247
     61 H26         0.7666    2.4039   15.0598 H         1 <0>         0.1256
     62 H27        -1.3807    3.4637   15.6338 H         1 <0>         0.1247
     63 H28        -3.4972    2.3180   15.1130 H         1 <0>         0.1256
     64 H29        -3.4665    0.1160   14.0114 H         1 <0>         0.1247
@<TRIPOS>BOND
     1    1    2 1
     2    1   37 1
     3    1   38 1
     4    1   39 1
     5    2    3 1
     6    2   40 1
     7    2   41 1
     8    3   42 1
     9    3   43 1
    10    3    4 1
    11    4    5 1
    12    4   10 am
    13    5   17 1
    14    5    6 2
    15    6    7 1
    16    6   15 1
    17    7    9 am
    18    7    8 2
    19    9   10 am
    20    9   12 1
    21   10   11 2
    22   12   13 1
    23   12   44 1
    24   12   45 1
    25   13   14 1
    26   13   46 1
    27   13   47 1
    28   14   48 1
    29   14   49 1
    30   14   50 1
    31   15   18 1
    32   15   16 1
    33   16   19 1
    34   16   17 2
    35   19   24 ar
    36   19   20 ar
    37   20   21 ar
    38   20   51 1
    39   21   22 ar
    40   21   52 1
    41   22   23 ar
    42   22   25 1
    43   23   24 ar
    44   23   53 1
    45   24   54 1
    46   25   26 1
    47   26   27 1
    48   26   55 1
    49   26   56 1
    50   27   28 2
    51   27   29 am
    52   29   30 1
    53   29   57 1
    54   30   31 1
    55   30   58 1
    56   30   59 1
    57   31   36 ar
    58   31   32 ar
    59   32   33 ar
    60   32   60 1
    61   33   34 ar
    62   33   61 1
    63   34   35 ar
    64   34   62 1
    65   35   36 ar
    66   35   63 1
    67   36   64 1
@<TRIPOS>MOLECULE
CHEMBL184309
   57    61     0     0     0
SMALL
USER_CHARGES

@<TRIPOS>ATOM
      1 C1         -0.0178    1.4608    0.0101 C.3       1 <0>         0.0557
      2 N1          0.0021   -0.0041    0.0020 N.pl3     1 <0>        -0.5428
      3 C2          0.0241   -0.7433    1.2666 C.3       1 <0>         0.1154
      4 C3         -1.4105   -1.0203    1.7205 C.3       1 <0>         0.0391
      5 N2         -1.3884   -1.7615    2.9886 N.3       1 <0>        -0.5287
      6 C4         -0.8074   -3.0985    2.8068 C.3       1 <0>         0.0355
      7 C5         -0.6355   -3.7674    4.1748 C.3       1 <0>         0.1487
      8 N3         -1.9295   -3.7413    4.8735 N.pl3     1 <0>        -0.6743
      9 C6         -2.6395   -2.4573    4.9755 C.3       1 <0>         0.1491
     10 C7         -2.7325   -1.8400    3.5761 C.3       1 <0>         0.0420
     11 C8         -2.4707   -4.9076    5.4272 C.ar      1 <0>         0.1236
     12 C9         -2.1802   -5.2538    6.7395 C.ar      1 <0>        -0.0650
     13 C10        -2.7152   -6.4053    7.2843 C.ar      1 <0>        -0.1557
     14 C11        -3.5407   -7.2149    6.5227 C.ar      1 <0>         0.1311
     15 C12        -3.8325   -6.8732    5.2130 C.ar      1 <0>        -0.1893
     16 C13        -3.3048   -5.7182    4.6652 C.ar      1 <0>         0.1205
     17 F1         -3.5945   -5.3811    3.3894 F         1 <0>        -0.1288
     18 F2         -4.0619   -8.3405    7.0581 F         1 <0>        -0.1279
     19 C14         0.0000   -0.6873   -1.1964 C.2       1 <0>         0.6510
     20 N4         -0.0147   -0.0010   -2.3424 N.pl3     1 <0>        -0.5987
     21 C15        -0.0170   -0.6295   -3.5040 C.cat     1 <0>         0.7684
     22 N5         -0.0042   -1.9937   -3.5272 N.pl3     1 <0>        -0.4039
     23 C16         0.0109   -2.6886   -2.3460 C.2       1 <0>         0.5451
     24 N6          0.0181   -2.0101   -1.1896 N.2       1 <0>        -0.5055
     25 N7          0.0210   -3.9777   -2.6425 N.2       1 <0>        -0.4664
     26 C17         0.0130   -4.1338   -3.9725 C.2       1 <0>         0.4158
     27 N8         -0.0024   -2.9478   -4.5509 N.2       1 <0>        -0.2954
     28 C18         0.0207   -5.4305   -4.6811 C.2       1 <0>        -0.0056
     29 C19         0.0312   -6.6585   -4.0977 C.2       1 <0>        -0.0890
     30 C20         0.0355   -7.6040   -5.1422 C.2       1 <0>        -0.2216
     31 C21         0.0276   -6.9137   -6.2996 C.2       1 <0>         0.0252
     32 O1          0.0128   -5.6012   -6.0173 O.3       1 <0>        -0.1583
     33 N9         -0.0326    0.0818   -4.6751 N.pl3     1 <0>        -0.7468
     34 H1          1.0048    1.8381    0.0023 H         1 <0>         0.0950
     35 H2         -0.5450    1.8219   -0.8730 H         1 <0>         0.0735
     36 H3         -0.5280    1.8123    0.9069 H         1 <0>         0.1188
     37 H4          0.5496   -1.6879    1.1262 H         1 <0>         0.1109
     38 H5          0.5371   -0.1514    2.0246 H         1 <0>         0.1180
     39 H6         -1.9359   -0.0757    1.8610 H         1 <0>         0.0814
     40 H7         -1.9235   -1.6122    0.9626 H         1 <0>         0.0424
     41 H8         -1.4708   -3.7022    2.1875 H         1 <0>         0.0439
     42 H9          0.1641   -3.0098    2.3206 H         1 <0>         0.0838
     43 H10        -0.3131   -4.7998    4.0396 H         1 <0>         0.0753
     44 H11         0.1067   -3.2224    4.7581 H         1 <0>         0.0646
     45 H12        -3.6420   -2.6236    5.3697 H         1 <0>         0.0755
     46 H13        -2.0900   -1.7865    5.6359 H         1 <0>         0.0656
     47 H14        -3.1572   -0.8387    3.6477 H         1 <0>         0.0831
     48 H15        -3.3691   -2.4612    2.9460 H         1 <0>         0.0412
     49 H16        -1.5358   -4.6235    7.3345 H         1 <0>         0.1451
     50 H17        -2.4889   -6.6744    8.3055 H         1 <0>         0.1463
     51 H18        -4.4760   -7.5066    4.6204 H         1 <0>         0.1489
     52 H19         0.0356   -6.8686   -3.0384 H         1 <0>         0.1697
     53 H20         0.0440   -8.6787   -5.0355 H         1 <0>         0.1685
     54 H21         0.0283   -7.3448   -7.2899 H         1 <0>         0.2225
     55 H22        -0.0420    1.0515   -4.6534 H         1 <0>         0.4470
     56 H23        -0.0342   -0.3843   -5.5257 H         1 <0>         0.4601
     57 H24        -0.0241    0.9687   -2.3212 H         1 <0>         0.4561
@<TRIPOS>BOND
     1    1    2 1
     2    1   34 1
     3    1   35 1
     4    1   36 1
     5    2    3 1
     6    2   19 1
     7    3    4 1
     8    3   37 1
     9    3   38 1
    10    4    5 1
    11    4   39 1
    12    4   40 1
    13    5   10 1
    14    5    6 1
    15    6    7 1
    16    6   41 1
    17    6   42 1
    18    7    8 1
    19    7   43 1
    20    7   44 1
    21    8    9 1
    22    8   11 1
    23    9   10 1
    24    9   45 1
    25    9   46 1
    26   10   47 1
    27   10   48 1
    28   11   16 ar
    29   11   12 ar
    30   12   13 ar
    31   12   49 1
    32   13   14 ar
    33   13   50 1
    34   14   15 ar
    35   14   18 1
    36   15   16 ar
    37   15   51 1
    38   16   17 1
    39   19   24 2
    40   19   20 1
    41   20   21 2
    42   20   57 1
    43   21   22 1
    44   21   33 1
    45   22   27 1
    46   22   23 1
    47   23   24 1
    48   23   25 2
    49   25   26 1
    50   26   27 2
    51   26   28 1
    52   28   32 1
    53   28   29 2
    54   29   30 1
    55   29   52 1
    56   30   31 2
    57   30   53 1
    58   31   32 1
    59   31   54 1
    60   33   55 1
    61   33   56 1
@<TRIPOS>MOLECULE
CHEMBL1087701
   51    55     0     0     0
SMALL
USER_CHARGES

@<TRIPOS>ATOM
      1 C1         -0.0167    1.3793    0.0096 C.ar      1 <0>        -0.0830
      2 C2          1.1685    2.0929    0.0021 C.ar      1 <0>        -0.1315
      3 C3          2.3774    1.4279   -0.0130 C.ar      1 <0>        -0.0619
      4 C4          2.4029    0.0333   -0.0207 C.ar      1 <0>        -0.0965
      5 C5          1.2046   -0.6805   -0.0131 C.ar      1 <0>        -0.0587
      6 C6          0.0021   -0.0041    0.0020 C.ar      1 <0>        -0.1255
      7 C7          3.6972   -0.6866   -0.0375 C.ar      1 <0>         0.3588
      8 C8          3.8485   -1.9053    0.6416 C.ar      1 <0>        -0.3353
      9 C9          5.0995   -2.5526    0.5963 C.ar      1 <0>         0.2803
     10 N1          6.0850   -1.9878   -0.0854 N.ar      1 <0>        -0.5863
     11 C10         5.9016   -0.8324   -0.7162 C.ar      1 <0>         0.6082
     12 N2          4.7422   -0.1938   -0.7026 N.ar      1 <0>        -0.5583
     13 N3          6.9560   -0.2811   -1.4137 N.pl3     1 <0>        -0.8007
     14 C11         5.0091   -3.8087    1.3828 C.ar      1 <0>        -0.0126
     15 C12         5.9398   -4.8012    1.6568 C.ar      1 <0>        -0.1138
     16 C13         5.5832   -5.8911    2.4363 C.ar      1 <0>        -0.0726
     17 C14         4.3040   -5.9981    2.9448 C.ar      1 <0>        -0.0946
     18 C15         3.3631   -5.0152    2.6796 C.ar      1 <0>        -0.0219
     19 C16         3.7079   -3.9189    1.9009 C.ar      1 <0>        -0.1345
     20 C17         2.9384   -2.7304    1.4536 C.2       1 <0>         0.4549
     21 O1          1.7764   -2.4848    1.7094 O.2       1 <0>        -0.3894
     22 C18         7.3386   -4.6945    1.1063 C.3       1 <0>         0.0421
     23 N4          8.1250   -3.7772    1.9419 N.4       1 <0>        -0.3801
     24 C19         8.2704   -4.3462    3.2872 C.3       1 <0>        -0.0135
     25 C20         9.0190   -3.3585    4.1846 C.3       1 <0>        -0.1455
     26 C21        10.4044   -3.0869    3.5911 C.3       1 <0>        -0.1383
     27 C22        10.2425   -2.5638    2.1609 C.3       1 <0>        -0.1455
     28 C23         9.4485   -3.5809    1.3384 C.3       1 <0>        -0.0053
     29 H1         -0.9604    1.9042    0.0260 H         1 <0>         0.1313
     30 H2          1.1475    3.1726    0.0078 H         1 <0>         0.1323
     31 H3          3.3020    1.9860   -0.0192 H         1 <0>         0.1300
     32 H4          1.2180   -1.7604   -0.0194 H         1 <0>         0.1327
     33 H5         -0.9264   -0.5556    0.0083 H         1 <0>         0.1325
     34 H6          7.8124   -0.7360   -1.4376 H         1 <0>         0.4174
     35 H7          6.8412    0.5615   -1.8803 H         1 <0>         0.4270
     36 H8          6.3105   -6.6613    2.6467 H         1 <0>         0.1492
     37 H9          4.0354   -6.8506    3.5509 H         1 <0>         0.1546
     38 H10         2.3631   -5.1023    3.0782 H         1 <0>         0.1536
     39 H11         7.8060   -5.6792    1.1086 H         1 <0>         0.1411
     40 H12         7.2994   -4.3132    0.0860 H         1 <0>         0.1450
     41 H13         7.2837   -4.5419    3.7070 H         1 <0>         0.1272
     42 H14         8.8307   -5.2793    3.2279 H         1 <0>         0.1315
     43 H15         8.4594   -2.4250    4.2448 H         1 <0>         0.0843
     44 H16         9.1276   -3.7835    5.1825 H         1 <0>         0.1129
     45 H17        10.9201   -2.3410    4.1958 H         1 <0>         0.0938
     46 H18        10.9828   -4.0106    3.5781 H         1 <0>         0.0833
     47 H19         9.7083   -1.6139    2.1791 H         1 <0>         0.0849
     48 H20        11.2255   -2.4208    1.7122 H         1 <0>         0.1131
     49 H21         9.9837   -4.5303    1.3207 H         1 <0>         0.1301
     50 H22         9.3316   -3.2117    0.3196 H         1 <0>         0.1310
     51 H23         7.6497   -2.8893    2.0041 H         1 <0>         0.4217
@<TRIPOS>BOND
     1    1    6 ar
     2    1    2 ar
     3    1   29 1
     4    2    3 ar
     5    2   30 1
     6    3    4 ar
     7    3   31 1
     8    4    5 ar
     9    4    7 1
    10    5    6 ar
    11    5   32 1
    12    6   33 1
    13    7   12 ar
    14    7    8 ar
    15    8   20 1
    16    8    9 ar
    17    9   10 ar
    18    9   14 1
    19   10   11 ar
    20   11   12 ar
    21   11   13 1
    22   13   34 1
    23   13   35 1
    24   14   19 ar
    25   14   15 ar
    26   15   16 ar
    27   15   22 1
    28   16   17 ar
    29   16   36 1
    30   17   18 ar
    31   17   37 1
    32   18   19 ar
    33   18   38 1
    34   19   20 1
    35   20   21 2
    36   22   23 1
    37   22   39 1
    38   22   40 1
    39   23   28 1
    40   23   24 1
    41   23   51 1
    42   24   25 1
    43   24   41 1
    44   24   42 1
    45   25   26 1
    46   25   43 1
    47   25   44 1
    48   26   27 1
    49   26   45 1
    50   26   46 1
    51   27   28 1
    52   27   47 1
    53   27   48 1
    54   28   49 1
    55   28   50 1
@<TRIPOS>MOLECULE
CHEMBL409460
   66    69     0     0     0
SMALL
USER_CHARGES

@<TRIPOS>ATOM
      1 C1         -0.0184    1.5028    0.0103 C.3       1 <0>        -0.0714
      2 C2          0.0021   -0.0041    0.0020 C.2       1 <0>        -0.0090
      3 C3         -1.0830   -0.8050    0.0027 C.2       1 <0>        -0.2218
      4 C4         -0.6160   -2.1327   -0.0076 C.2       1 <0>        -0.1341
      5 C5          0.7432   -2.0699   -0.0140 C.2       1 <0>         0.0405
      6 O1          1.1026   -0.7711   -0.0131 O.3       1 <0>        -0.1563
      7 C6          1.6636   -3.2233   -0.0254 C.ar      1 <0>         0.4157
      8 N1          1.1605   -4.4518   -0.0358 N.ar      1 <0>        -0.5031
      9 C7          1.9636   -5.5156   -0.0467 C.ar      1 <0>         0.4232
     10 C8          3.3494   -5.3203   -0.0472 C.ar      1 <0>        -0.2396
     11 C9          3.8342   -4.0177   -0.0362 C.ar      1 <0>         0.3996
     12 N2          2.9738   -3.0053   -0.0307 N.ar      1 <0>        -0.5789
     13 N3          5.2095   -3.7758   -0.0363 N.pl3     1 <0>        -0.3144
     14 C10         5.8246   -2.6507   -0.4862 C.2       1 <0>         0.1141
     15 C11         7.1557   -2.8140   -0.3105 C.2       1 <0>        -0.2767
     16 C12         7.3642   -4.0739    0.2630 C.2       1 <0>         0.0787
     17 N4          6.2010   -4.6472    0.4329 N.2       1 <0>        -0.2799
     18 C13         8.7009   -4.6659    0.6288 C.3       1 <0>        -0.0695
     19 C14         5.1465   -1.4404   -1.0747 C.3       1 <0>        -0.0838
     20 N5          1.4410   -6.7794   -0.0569 N.2       1 <0>        -0.6301
     21 C15         0.1507   -6.9501   -0.0559 C.2       1 <0>         0.4092
     22 O2         -0.6697   -5.8823   -0.0449 O.3       1 <0>        -0.6578
     23 C16        -0.4251   -8.3427   -0.0671 C.3       1 <0>         0.0875
     24 N6          0.6677   -9.3244   -0.0779 N.3       1 <0>        -0.4960
     25 C17         1.4324   -9.2468   -1.3291 C.3       1 <0>         0.0480
     26 C18         0.5195   -9.5894   -2.5086 C.3       1 <0>        -0.1614
     27 C19        -0.0431  -11.0008   -2.3191 C.3       1 <0>        -0.1216
     28 C20        -0.7937  -11.0679   -0.9862 C.3       1 <0>        -0.1612
     29 H1         -1.6351  -10.3753   -1.0071 H         1 <0>         0.0952
     30 C21         0.1573  -10.6825    0.1491 C.3       1 <0>         0.0637
     31 C22        -1.3089  -12.4909   -0.7612 C.3       1 <0>        -0.0022
     32 N7         -2.3087  -12.8175   -1.7867 N.4       1 <0>        -0.3887
     33 C23        -2.7155  -14.2219   -1.6442 C.3       1 <0>        -0.0460
     34 C24        -3.4817  -11.9488   -1.6212 C.3       1 <0>        -0.0525
     35 H2          1.0042    1.8801    0.0026 H         1 <0>         0.0750
     36 H3         -0.5455    1.8639   -0.8728 H         1 <0>         0.0841
     37 H4         -0.5286    1.8543    0.9071 H         1 <0>         0.0842
     38 H5         -2.1153   -0.4875    0.0097 H         1 <0>         0.1486
     39 H6         -1.2198   -3.0281   -0.0096 H         1 <0>         0.1646
     40 H7          4.0262   -6.1619   -0.0556 H         1 <0>         0.1419
     41 H8          7.9227   -2.0984   -0.5674 H         1 <0>         0.1504
     42 H9          8.9503   -4.3940    1.6545 H         1 <0>         0.0770
     43 H10         8.6535   -5.7514    0.5420 H         1 <0>         0.0727
     44 H11         9.4657   -4.2806   -0.0455 H         1 <0>         0.0778
     45 H12         4.9099   -0.7338   -0.2793 H         1 <0>         0.0832
     46 H13         5.8119   -0.9660   -1.7961 H         1 <0>         0.0749
     47 H14         4.2274   -1.7460   -1.5746 H         1 <0>         0.0797
     48 H15        -1.0371   -8.4900    0.8228 H         1 <0>         0.0828
     49 H16        -1.0405   -8.4743   -0.9571 H         1 <0>         0.0453
     50 H17         1.8234   -8.2370   -1.4538 H         1 <0>         0.1223
     51 H18         2.2604   -9.9548   -1.2931 H         1 <0>         0.0687
     52 H19        -0.3012   -8.8735   -2.5535 H         1 <0>         0.0680
     53 H20         1.0912   -9.5469   -3.4356 H         1 <0>         0.0743
     54 H21        -0.7279  -11.2325   -3.1349 H         1 <0>         0.0489
     55 H22         0.7749  -11.7212   -2.3132 H         1 <0>         0.0764
     56 H23         0.9913  -11.3837    0.1782 H         1 <0>         0.0822
     57 H24        -0.3779  -10.7154    1.0981 H         1 <0>         0.0799
     58 H25        -0.4778  -13.1930   -0.8274 H         1 <0>         0.1302
     59 H26        -1.7652  -12.5602    0.2263 H         1 <0>         0.1303
     60 H27        -3.1458  -14.3769   -0.6548 H         1 <0>         0.1210
     61 H28        -3.4574  -14.4643   -2.4051 H         1 <0>         0.1209
     62 H29        -1.8451  -14.8665   -1.7670 H         1 <0>         0.1215
     63 H30        -3.1799  -10.9068   -1.7269 H         1 <0>         0.1251
     64 H31        -4.2236  -12.1912   -2.3821 H         1 <0>         0.1218
     65 H32        -3.9120  -12.1039   -0.6318 H         1 <0>         0.1229
     66 H33        -1.9104  -12.6740   -2.7025 H         1 <0>         0.4239
@<TRIPOS>BOND
     1    1    2 1
     2    1   35 1
     3    1   36 1
     4    1   37 1
     5    2    6 1
     6    2    3 2
     7    3    4 1
     8    3   38 1
     9    4    5 2
    10    4   39 1
    11    5    6 1
    12    5    7 1
    13    7   12 ar
    14    7    8 ar
    15    8    9 ar
    16    9   10 ar
    17    9   20 1
    18   10   11 ar
    19   10   40 1
    20   11   12 ar
    21   11   13 1
    22   13   17 1
    23   13   14 1
    24   14   15 2
    25   14   19 1
    26   15   16 1
    27   15   41 1
    28   16   17 2
    29   16   18 1
    30   18   42 1
    31   18   43 1
    32   18   44 1
    33   19   45 1
    34   19   46 1
    35   19   47 1
    36   20   21 2
    37   21   22 1
    38   21   23 1
    39   23   24 1
    40   23   48 1
    41   23   49 1
    42   24   30 1
    43   24   25 1
    44   25   26 1
    45   25   50 1
    46   25   51 1
    47   26   27 1
    48   26   52 1
    49   26   53 1
    50   27   28 1
    51   27   54 1
    52   27   55 1
    53   28   29 1
    54   28   30 1
    55   28   31 1
    56   30   56 1
    57   30   57 1
    58   31   32 1
    59   31   58 1
    60   31   59 1
    61   32   33 1
    62   32   34 1
    63   32   66 1
    64   33   60 1
    65   33   61 1
    66   33   62 1
    67   34   63 1
    68   34   64 1
    69   34   65 1
@<TRIPOS>MOLECULE
CHEMBL246675
   68    73     0     0     0
SMALL
USER_CHARGES

@<TRIPOS>ATOM
      1 C1         -2.2237    1.2650    1.5138 C.3       1 <0>         0.0302
      2 O1         -1.8300   -0.0695    1.8395 O.3       1 <0>        -0.3847
      3 C2         -0.4159   -0.2511    1.9364 C.3       1 <0>         0.0617
      4 C3         -0.1117   -1.7089    2.2873 C.3       1 <0>         0.0632
      5 O2         -0.5287   -2.5543    1.2134 O.3       1 <0>        -0.3104
      6 C4         -0.3284   -3.8908    1.3662 C.ar      1 <0>         0.0742
      7 C5          0.2523   -4.3762    2.5285 C.ar      1 <0>        -0.1587
      8 C6          0.4561   -5.7332    2.6845 C.ar      1 <0>        -0.1596
      9 C7          0.0796   -6.6118    1.6772 C.ar      1 <0>         0.1862
     10 C8         -0.5017   -6.1250    0.5139 C.ar      1 <0>        -0.1591
     11 C9         -0.7100   -4.7681    0.3619 C.ar      1 <0>        -0.0999
     12 N1          0.2862   -7.9869    1.8342 N.pl3     1 <0>        -0.6337
     13 C10        -0.2111   -8.9440    0.8343 C.3       1 <0>         0.1283
     14 C11         0.9428   -9.8668    0.4278 C.3       1 <0>         0.0415
     15 N2          1.5277  -10.4733    1.6311 N.3       1 <0>        -0.5308
     16 C12         2.1123   -9.4531    2.5117 C.3       1 <0>         0.0348
     17 C13         1.0116   -8.5129    3.0005 C.3       1 <0>         0.1289
     18 C14         2.5223  -11.4944    1.2756 C.3       1 <0>         0.0408
     19 C15         2.9247  -12.2727    2.5298 C.3       1 <0>         0.1128
     20 N3          3.9165  -13.2910    2.1753 N.pl3     1 <0>        -0.4507
     21 C16         3.6611  -14.5965    1.8783 C.2       1 <0>         0.2312
     22 N4          4.7765  -15.2136    1.6105 N.2       1 <0>        -0.4317
     23 C17         5.8071  -14.3458    1.7192 C.2       1 <0>        -0.0218
     24 C18         5.2723  -13.1038    2.0757 C.2       1 <0>         0.2844
     25 N5          6.0837  -12.0532    2.2449 N.2       1 <0>        -0.5457
     26 C19         7.3819  -12.1393    2.0849 C.2       1 <0>         0.6691
     27 N6          7.9975  -13.3053    1.7347 N.pl3     1 <0>        -0.3638
     28 C20         7.2545  -14.4426    1.5464 C.2       1 <0>         0.3899
     29 N7          8.0823  -15.4153    1.2202 N.2       1 <0>        -0.4789
     30 C21         9.3361  -14.9521    1.2061 C.2       1 <0>         0.3164
     31 N8          9.3304  -13.6679    1.5036 N.2       1 <0>        -0.3028
     32 C22        10.5432  -15.7530    0.8840 C.ar      1 <0>         0.1918
     33 C23        11.7990  -15.1507    0.9101 C.ar      1 <0>        -0.1286
     34 C24        12.9158  -15.9105    0.6078 C.ar      1 <0>        -0.0769
     35 C25        12.7394  -17.2495    0.2890 C.ar      1 <0>        -0.1533
     36 C26        11.4636  -17.7824    0.2823 C.ar      1 <0>         0.1045
     37 N9         10.4180  -17.0377    0.5789 N.ar      1 <0>        -0.4408
     38 N10         8.1509  -11.0137    2.2764 N.pl3     1 <0>        -0.8080
     39 H1         -3.3110    1.3199    1.4591 H         1 <0>         0.0881
     40 H2         -1.8637    1.9481    2.2832 H         1 <0>         0.0417
     41 H3         -1.7968    1.5449    0.5508 H         1 <0>         0.0429
     42 H4          0.0485   -0.0026    0.9821 H         1 <0>         0.0611
     43 H5         -0.0184    0.4005    2.7145 H         1 <0>         0.0708
     44 H6          0.9597   -1.8278    2.4484 H         1 <0>         0.0750
     45 H7         -0.6483   -1.9835    3.1954 H         1 <0>         0.0692
     46 H8          0.5454   -3.6927    3.3117 H         1 <0>         0.1256
     47 H9          0.9086   -6.1110    3.5895 H         1 <0>         0.1243
     48 H10        -0.7948   -6.8076   -0.2700 H         1 <0>         0.1289
     49 H11        -1.1664   -4.3898   -0.5408 H         1 <0>         0.1298
     50 H12        -1.0192   -9.5358    1.2641 H         1 <0>         0.0711
     51 H13        -0.5739   -8.4043   -0.0404 H         1 <0>         0.0874
     52 H14         0.5670  -10.6513   -0.2291 H         1 <0>         0.0878
     53 H15         1.7045   -9.2882   -0.0949 H         1 <0>         0.0407
     54 H16         2.5846   -9.9377    3.3662 H         1 <0>         0.0869
     55 H17         2.8576   -8.8803    1.9600 H         1 <0>         0.0417
     56 H18         1.4568   -7.6884    3.5573 H         1 <0>         0.0852
     57 H19         0.3233   -9.0625    3.6426 H         1 <0>         0.0696
     58 H20         2.0938  -12.1799    0.5444 H         1 <0>         0.0860
     59 H21         3.4019  -11.0119    0.8495 H         1 <0>         0.0450
     60 H22         3.3531  -11.5872    3.2610 H         1 <0>         0.0972
     61 H23         2.0450  -12.7552    2.9559 H         1 <0>         0.1133
     62 H24         2.6815  -15.0509    1.8668 H         1 <0>         0.2288
     63 H25        11.8997  -14.1054    1.1623 H         1 <0>         0.1449
     64 H26        13.9023  -15.4710    0.6195 H         1 <0>         0.1444
     65 H27        13.5904  -17.8693    0.0480 H         1 <0>         0.1433
     66 H28        11.3227  -18.8241    0.0346 H         1 <0>         0.1666
     67 H29         7.7306  -10.1757    2.5254 H         1 <0>         0.4279
     68 H30         9.1132  -11.0585    2.1624 H         1 <0>         0.4249
@<TRIPOS>BOND
     1    1    2 1
     2    1   39 1
     3    1   40 1
     4    1   41 1
     5    2    3 1
     6    3    4 1
     7    3   42 1
     8    3   43 1
     9    4    5 1
    10    4   44 1
    11    4   45 1
    12    5    6 1
    13    6   11 ar
    14    6    7 ar
    15    7    8 ar
    16    7   46 1
    17    8    9 ar
    18    8   47 1
    19    9   10 ar
    20    9   12 1
    21   10   11 ar
    22   10   48 1
    23   11   49 1
    24   12   17 1
    25   12   13 1
    26   13   14 1
    27   13   50 1
    28   13   51 1
    29   14   15 1
    30   14   52 1
    31   14   53 1
    32   15   16 1
    33   15   18 1
    34   16   17 1
    35   16   54 1
    36   16   55 1
    37   17   56 1
    38   17   57 1
    39   18   19 1
    40   18   58 1
    41   18   59 1
    42   19   20 1
    43   19   60 1
    44   19   61 1
    45   20   24 1
    46   20   21 1
    47   21   22 2
    48   21   62 1
    49   22   23 1
    50   23   28 1
    51   23   24 2
    52   24   25 1
    53   25   26 2
    54   26   27 1
    55   26   38 1
    56   27   31 1
    57   27   28 1
    58   28   29 2
    59   29   30 1
    60   30   31 2
    61   30   32 1
    62   32   37 ar
    63   32   33 ar
    64   33   34 ar
    65   33   63 1
    66   34   35 ar
    67   34   64 1
    68   35   36 ar
    69   35   65 1
    70   36   37 ar
    71   36   66 1
    72   38   67 1
    73   38   68 1
@<TRIPOS>MOLECULE
CHEMBL1088235
   49    53     0     0     0
SMALL
USER_CHARGES

@<TRIPOS>ATOM
      1 C1         -0.0167    1.3793    0.0096 C.ar      1 <0>        -0.0932
      2 C2          1.1685    2.0929    0.0021 C.ar      1 <0>        -0.1341
      3 C3          2.3774    1.4279   -0.0130 C.ar      1 <0>        -0.0662
      4 C4          2.4029    0.0333   -0.0207 C.ar      1 <0>        -0.0804
      5 C5          1.2046   -0.6805   -0.0131 C.ar      1 <0>        -0.0596
      6 C6          0.0021   -0.0041    0.0020 C.ar      1 <0>        -0.1271
      7 C7          3.6972   -0.6866   -0.0375 C.ar      1 <0>         0.3415
      8 C8          3.8485   -1.9053    0.6416 C.ar      1 <0>        -0.3479
      9 C9          5.0995   -2.5526    0.5963 C.ar      1 <0>         0.3077
     10 N1          6.0850   -1.9878   -0.0854 N.ar      1 <0>        -0.5629
     11 C10         5.9016   -0.8324   -0.7162 C.ar      1 <0>         0.6026
     12 N2          4.7422   -0.1938   -0.7026 N.ar      1 <0>        -0.5704
     13 N3          6.9560   -0.2811   -1.4137 N.pl3     1 <0>        -0.8044
     14 C11         5.0091   -3.8087    1.3828 C.ar      1 <0>        -0.0378
     15 C12         5.9398   -4.8012    1.6568 C.ar      1 <0>        -0.0609
     16 C13         5.5832   -5.8911    2.4363 C.ar      1 <0>        -0.0608
     17 C14         4.3040   -5.9981    2.9448 C.ar      1 <0>        -0.0805
     18 C15         3.3631   -5.0152    2.6796 C.ar      1 <0>        -0.0501
     19 C16         3.7079   -3.9189    1.9009 C.ar      1 <0>        -0.1442
     20 C17         2.9384   -2.7304    1.4536 C.2       1 <0>         0.4639
     21 O1          1.7764   -2.4848    1.7094 O.2       1 <0>        -0.4132
     22 C18         6.5980   -6.9658    2.7299 C.3       1 <0>         0.0950
     23 N4          7.3232   -6.6308    3.9628 N.3       1 <0>        -0.6789
     24 C19         8.3233   -7.6587    4.2810 C.3       1 <0>         0.1093
     25 C20         9.0452   -7.2816    5.5489 C.ar      1 <0>         0.1262
     26 C21         8.6175   -7.7975    6.7579 C.ar      1 <0>        -0.1504
     27 C22         9.2886   -7.4443    7.9184 C.ar      1 <0>        -0.0760
     28 C23        10.3696   -6.5814    7.8191 C.ar      1 <0>        -0.1718
     29 C24        10.7394   -6.1057    6.5755 C.ar      1 <0>         0.1000
     30 N5         10.0808   -6.4675    5.4916 N.ar      1 <0>        -0.4825
     31 H1         -0.9604    1.9042    0.0260 H         1 <0>         0.1264
     32 H2          1.1475    3.1726    0.0078 H         1 <0>         0.1281
     33 H3          3.3020    1.9860   -0.0192 H         1 <0>         0.1291
     34 H4          1.2180   -1.7604   -0.0194 H         1 <0>         0.1349
     35 H5         -0.9264   -0.5556    0.0083 H         1 <0>         0.1289
     36 H6          7.8124   -0.7360   -1.4376 H         1 <0>         0.4195
     37 H7          6.8412    0.5615   -1.8803 H         1 <0>         0.4207
     38 H8          6.9422   -4.7247    1.2623 H         1 <0>         0.1369
     39 H9          4.0354   -6.8506    3.5509 H         1 <0>         0.1419
     40 H10         2.3631   -5.1023    3.0782 H         1 <0>         0.1418
     41 H11         6.0891   -7.9214    2.8559 H         1 <0>         0.0912
     42 H12         7.3029   -7.0360    1.9014 H         1 <0>         0.0495
     43 H13         7.7505   -5.7194    3.8946 H         1 <0>         0.3498
     44 H14         7.8263   -8.6191    4.4178 H         1 <0>         0.0913
     45 H15         9.0401   -7.7337    3.4633 H         1 <0>         0.0532
     46 H16         7.7711   -8.4671    6.7979 H         1 <0>         0.1362
     47 H17         8.9766   -7.8316    8.8771 H         1 <0>         0.1357
     48 H18        10.9153   -6.2847    8.7025 H         1 <0>         0.1356
     49 H19        11.5802   -5.4333    6.4897 H         1 <0>         0.1563
@<TRIPOS>BOND
     1    1    6 ar
     2    1    2 ar
     3    1   31 1
     4    2    3 ar
     5    2   32 1
     6    3    4 ar
     7    3   33 1
     8    4    5 ar
     9    4    7 1
    10    5    6 ar
    11    5   34 1
    12    6   35 1
    13    7   12 ar
    14    7    8 ar
    15    8   20 1
    16    8    9 ar
    17    9   10 ar
    18    9   14 1
    19   10   11 ar
    20   11   12 ar
    21   11   13 1
    22   13   36 1
    23   13   37 1
    24   14   19 ar
    25   14   15 ar
    26   15   16 ar
    27   15   38 1
    28   16   17 ar
    29   16   22 1
    30   17   18 ar
    31   17   39 1
    32   18   19 ar
    33   18   40 1
    34   19   20 1
    35   20   21 2
    36   22   23 1
    37   22   41 1
    38   22   42 1
    39   23   24 1
    40   23   43 1
    41   24   25 1
    42   24   44 1
    43   24   45 1
    44   25   30 ar
    45   25   26 ar
    46   26   27 ar
    47   26   46 1
    48   27   28 ar
    49   27   47 1
    50   28   29 ar
    51   28   48 1
    52   29   30 ar
    53   29   49 1
@<TRIPOS>MOLECULE
CHEMBL423542
   44    48     0     0     0
SMALL
USER_CHARGES

@<TRIPOS>ATOM
      1 C1         -0.0167    1.3781    0.0096 C.ar      1 <0>        -0.1228
      2 C2          1.1709    2.0855    0.0021 C.ar      1 <0>        -0.1178
      3 C3          2.3773    1.4107   -0.0130 C.ar      1 <0>        -0.1151
      4 C4          2.3960    0.0285   -0.0201 C.ar      1 <0>        -0.0848
      5 C5          1.2084   -0.6789   -0.0117 C.ar      1 <0>        -0.1170
      6 C6          0.0021   -0.0041    0.0020 C.ar      1 <0>        -0.1186
      7 C7          3.7112   -0.7071   -0.0376 C.3       1 <0>        -0.0775
      8 C8          4.1714   -0.9633    1.3989 C.3       1 <0>        -0.1278
      9 C9          5.5066   -1.7102    1.3812 C.3       1 <0>         0.1286
     10 N1          5.9472   -1.9554    2.7567 N.pl3     1 <0>        -0.3399
     11 C10         6.2620   -3.1595    3.2652 C.2       1 <0>         0.1603
     12 C11         6.6251   -2.9794    4.5748 C.2       1 <0>        -0.2759
     13 C12         6.5109   -1.5389    4.8529 C.2       1 <0>         0.3219
     14 N2          6.1098   -0.9707    3.7382 N.2       1 <0>        -0.2668
     15 N3          6.8190   -1.0942    6.1000 N.2       1 <0>        -0.5330
     16 C13         7.2089   -1.9061    7.0444 C.2       1 <0>         0.6845
     17 N4          7.3445   -3.2585    6.8776 N.pl3     1 <0>        -0.3798
     18 C14         7.0681   -3.8476    5.6729 C.2       1 <0>         0.4127
     19 N5          7.2794   -5.1390    5.7932 N.2       1 <0>        -0.5150
     20 C15         7.6854   -5.4146    7.0402 C.2       1 <0>         0.3415
     21 N6          7.7405   -4.2956    7.7352 N.2       1 <0>        -0.2896
     22 C16         8.0202   -6.7592    7.5541 C.2       1 <0>         0.0443
     23 C17         8.4276   -7.0516    8.8178 C.2       1 <0>        -0.1384
     24 C18         8.6329   -8.4448    8.8658 C.2       1 <0>        -0.2189
     25 C19         8.3437   -8.9289    7.6420 C.2       1 <0>        -0.0062
     26 O1          7.9691   -7.9086    6.8536 O.3       1 <0>        -0.1534
     27 N7          7.5010   -1.3727    8.2781 N.pl3     1 <0>        -0.8081
     28 H1         -0.9591    1.9053    0.0259 H         1 <0>         0.1215
     29 H2          1.1563    3.1654    0.0076 H         1 <0>         0.1224
     30 H3          3.3051    1.9634   -0.0196 H         1 <0>         0.1223
     31 H4          1.2231   -1.7588   -0.0176 H         1 <0>         0.1209
     32 H5         -0.9258   -0.5567    0.0082 H         1 <0>         0.1219
     33 H6          3.5884   -1.6586   -0.5549 H         1 <0>         0.0771
     34 H7          4.4573   -0.1052   -0.5563 H         1 <0>         0.0786
     35 H8          4.2941   -0.0118    1.9163 H         1 <0>         0.0850
     36 H9          3.4252   -1.5652    1.9176 H         1 <0>         0.0730
     37 H10         5.3838   -2.6617    0.8639 H         1 <0>         0.1077
     38 H11         6.2527   -1.1082    0.8625 H         1 <0>         0.0980
     39 H12         6.2335   -4.1008    2.7364 H         1 <0>         0.1978
     40 H13         8.5673   -6.3513    9.6280 H         1 <0>         0.1602
     41 H14         8.9602   -9.0165    9.7217 H         1 <0>         0.1593
     42 H15         8.3999   -9.9659    7.3456 H         1 <0>         0.2138
     43 H16         7.4147   -0.4180    8.4264 H         1 <0>         0.4297
     44 H17         7.7933   -1.9512    8.9998 H         1 <0>         0.4234
@<TRIPOS>BOND
     1    1    6 ar
     2    1    2 ar
     3    1   28 1
     4    2    3 ar
     5    2   29 1
     6    3    4 ar
     7    3   30 1
     8    4    5 ar
     9    4    7 1
    10    5    6 ar
    11    5   31 1
    12    6   32 1
    13    7    8 1
    14    7   33 1
    15    7   34 1
    16    8    9 1
    17    8   35 1
    18    8   36 1
    19    9   10 1
    20    9   37 1
    21    9   38 1
    22   10   14 1
    23   10   11 1
    24   11   12 2
    25   11   39 1
    26   12   18 1
    27   12   13 1
    28   13   14 2
    29   13   15 1
    30   15   16 2
    31   16   17 1
    32   16   27 1
    33   17   21 1
    34   17   18 1
    35   18   19 2
    36   19   20 1
    37   20   21 2
    38   20   22 1
    39   22   26 1
    40   22   23 2
    41   23   24 1
    42   23   40 1
    43   24   25 2
    44   24   41 1
    45   25   26 1
    46   25   42 1
    47   27   43 1
    48   27   44 1
@<TRIPOS>MOLECULE
CHEMBL334873
   37    39     0     0     0
SMALL
USER_CHARGES

@<TRIPOS>ATOM
      1 C1         -0.0178    1.4608    0.0101 C.3       1 <0>         0.0699
      2 N1          0.0021   -0.0041    0.0020 N.pl3     1 <0>        -0.4107
      3 C2          0.0087   -0.8137   -1.0987 C.2       1 <0>         0.3317
      4 N2          0.0282   -2.0780   -0.7078 N.2       1 <0>        -0.4918
      5 C3          0.0349   -2.1413    0.6215 C.2       1 <0>         0.3266
      6 C4          0.0239   -0.8364    1.1081 C.2       1 <0>        -0.1518
      7 C5          0.0332   -0.6227    2.5003 C.2       1 <0>         0.5967
      8 O1          0.0209    0.5099    2.9495 O.2       1 <0>        -0.5096
      9 N3          0.0555   -1.6854    3.3309 N.am      1 <0>        -0.5488
     10 C6          0.0688   -2.9405    2.8502 C.2       1 <0>         0.7097
     11 O2          0.0888   -3.8735    3.6298 O.2       1 <0>        -0.5283
     12 N4          0.0530   -3.1910    1.5275 N.am      1 <0>        -0.5105
     13 C7          0.0699   -4.5740    1.0447 C.3       1 <0>         0.0894
     14 C8          0.0657   -1.4681    4.7797 C.3       1 <0>         0.2304
     15 C9         -1.3185   -1.4144    5.2776 C.1       1 <0>        -0.2162
     16 C10        -2.4225   -1.3716    5.6747 C.1       1 <0>        -0.1589
     17 C11        -0.0039   -0.3560   -2.4877 C.2       1 <0>        -0.1316
     18 C12         0.0044   -1.2550   -3.4947 C.2       1 <0>         0.0043
     19 C13        -0.0082   -0.7952   -4.8902 C.2       1 <0>        -0.1285
     20 C14        -0.0054   -1.7265   -5.9927 C.2       1 <0>        -0.1302
     21 C15        -0.0179   -1.1762   -7.2240 C.2       1 <0>        -0.2063
     22 S1         -0.0330    0.5709   -6.8855 S.3       1 <0>         0.1763
     23 C16        -0.0290    0.5452   -5.2079 C.2       1 <0>        -0.2305
     24 H1          1.0048    1.8381    0.0023 H         1 <0>         0.0883
     25 H2         -0.5450    1.8219   -0.8730 H         1 <0>         0.0953
     26 H3         -0.5280    1.8123    0.9069 H         1 <0>         0.1025
     27 H4          1.1017   -4.9030    0.9206 H         1 <0>         0.0739
     28 H5         -0.4321   -5.2173    1.7673 H         1 <0>         0.0937
     29 H6         -0.4472   -4.6308    0.0868 H         1 <0>         0.0921
     30 H7          0.5954   -2.2872    5.2662 H         1 <0>         0.1269
     31 H8          0.5687   -0.5271    5.0024 H         1 <0>         0.1253
     32 H9         -3.4098   -1.3334    6.0299 H         1 <0>         0.2226
     33 H10        -0.0197    0.7012   -2.7077 H         1 <0>         0.1380
     34 H11         0.0203   -2.3123   -3.2746 H         1 <0>         0.1387
     35 H12         0.0063   -2.7958   -5.8415 H         1 <0>         0.1468
     36 H13        -0.0185   -1.6745   -8.1821 H         1 <0>         0.1884
     37 H14        -0.0387    1.3871   -4.5315 H         1 <0>         0.1862
@<TRIPOS>BOND
     1    1    2 1
     2    1   24 1
     3    1   25 1
     4    1   26 1
     5    2    6 1
     6    2    3 1
     7    3    4 2
     8    3   17 1
     9    4    5 1
    10    5   12 1
    11    5    6 2
    12    6    7 1
    13    7    8 2
    14    7    9 am
    15    9   10 am
    16    9   14 1
    17   10   11 2
    18   10   12 am
    19   12   13 1
    20   13   27 1
    21   13   28 1
    22   13   29 1
    23   14   15 1
    24   14   30 1
    25   14   31 1
    26   15   16 3
    27   16   32 1
    28   17   18 2
    29   17   33 1
    30   18   19 1
    31   18   34 1
    32   19   23 2
    33   19   20 1
    34   20   21 2
    35   20   35 1
    36   21   22 1
    37   21   36 1
    38   22   23 1
    39   23   37 1
@<TRIPOS>MOLECULE
CHEMBL480570
   61    65     0     0     0
SMALL
USER_CHARGES

@<TRIPOS>ATOM
      1 C1          0.0886   -2.8476   -2.5118 C.3       1 <0>        -0.1052
      2 C2          0.0538   -2.0919   -1.2084 C.ar      1 <0>         0.1224
      3 C3          0.1110   -0.6986   -1.2070 C.ar      1 <0>         0.1416
      4 N1          0.0800   -0.0376   -0.0543 N.ar      1 <0>        -0.3925
      5 C4         -0.0047   -0.7020    1.0834 C.ar      1 <0>         0.0454
      6 C5         -0.0612   -2.0851    1.0777 C.ar      1 <0>         0.0723
      7 N2         -0.0362   -2.7473   -0.0663 N.ar      1 <0>        -0.4388
      8 C6          0.2067    0.0439   -2.4884 C.2       1 <0>         0.3291
      9 N3          0.3938    1.3617   -2.6045 N.2       1 <0>        -0.5270
     10 C7          0.4316    1.6929   -3.8862 C.2       1 <0>         0.3752
     11 C8          0.5994    2.9082   -4.5713 C.2       1 <0>        -0.3159
     12 C9          0.5866    2.8927   -5.9527 C.2       1 <0>         0.4736
     13 N4          0.4174    1.7397   -6.6116 N.2       1 <0>        -0.5842
     14 C10         0.2598    0.5990   -5.9780 C.2       1 <0>         0.6810
     15 N5          0.2623    0.5440   -4.6173 N.pl3     1 <0>        -0.3794
     16 N6          0.1260   -0.4954   -3.6885 N.2       1 <0>        -0.3288
     17 N7          0.0895   -0.5576   -6.7007 N.pl3     1 <0>        -0.8069
     18 N8          0.7492    4.0756   -6.6592 N.pl3     1 <0>        -0.5919
     19 C11         0.9342    5.3387   -5.9404 C.3       1 <0>         0.0881
     20 C12         0.7360    4.0617   -8.1241 C.3       1 <0>         0.1287
     21 C13        -0.6967    4.2597   -8.6231 C.3       1 <0>         0.0430
     22 N9         -0.7099    4.2457  -10.0920 N.3       1 <0>        -0.5286
     23 C14         0.0197    5.3987  -10.6361 C.3       1 <0>         0.0345
     24 C15         0.1386    5.2524  -12.1568 C.3       1 <0>         0.1501
     25 N10        -1.2076    5.0495  -12.7133 N.pl3     1 <0>        -0.6755
     26 C16        -2.0527    3.9992  -12.1251 C.3       1 <0>         0.1505
     27 C17        -2.0853    4.1948  -10.6056 C.3       1 <0>         0.0419
     28 C18        -1.6721    5.8348  -13.7750 C.ar      1 <0>         0.1286
     29 C19        -1.4641    5.4260  -15.0850 C.ar      1 <0>        -0.0663
     30 C20        -1.9232    6.2024  -16.1316 C.ar      1 <0>        -0.1569
     31 C21        -2.5903    7.3883  -15.8755 C.ar      1 <0>         0.1272
     32 C22        -2.7994    7.7998  -14.5701 C.ar      1 <0>        -0.1895
     33 C23        -2.3476    7.0229  -13.5189 C.ar      1 <0>         0.1205
     34 F1         -2.5570    7.4208  -12.2450 F         1 <0>        -0.1268
     35 F2         -3.0377    8.1455  -16.9011 F         1 <0>        -0.1303
     36 H1         -0.9153   -2.8896   -2.9343 H         1 <0>         0.0877
     37 H2          0.7551   -2.3394   -3.2087 H         1 <0>         0.0979
     38 H3          0.4511   -3.8602   -2.3352 H         1 <0>         0.0811
     39 H4         -0.0295   -0.1654    2.0203 H         1 <0>         0.1794
     40 H5         -0.1305   -2.6248    2.0107 H         1 <0>         0.1782
     41 H6          0.7350    3.8331   -4.0304 H         1 <0>         0.1583
     42 H7          0.0863   -0.5276   -7.6703 H         1 <0>         0.4287
     43 H8         -0.0275   -1.4038   -6.2413 H         1 <0>         0.4239
     44 H9          1.9974    5.5074   -5.7699 H         1 <0>         0.0631
     45 H10         0.5269    6.1574   -6.5337 H         1 <0>         0.0756
     46 H11         0.4157    5.2910   -4.9828 H         1 <0>         0.0797
     47 H12         1.3665    4.8670   -8.5009 H         1 <0>         0.0768
     48 H13         1.1164    3.1048   -8.4818 H         1 <0>         0.0986
     49 H14        -1.3272    3.4543   -8.2464 H         1 <0>         0.0790
     50 H15        -1.0770    5.2165   -8.2655 H         1 <0>         0.0326
     51 H16        -0.5206    6.3154  -10.4000 H         1 <0>         0.0384
     52 H17         1.0159    5.4395  -10.1956 H         1 <0>         0.0830
     53 H18         0.5766    6.1571  -12.5785 H         1 <0>         0.0719
     54 H19         0.7663    4.3934  -12.3941 H         1 <0>         0.0643
     55 H20        -3.0635    4.0753  -12.5259 H         1 <0>         0.0719
     56 H21        -1.6357    3.0197  -12.3593 H         1 <0>         0.0643
     57 H22        -2.6157    3.3625  -10.1430 H         1 <0>         0.0813
     58 H23        -2.5963    5.1283  -10.3699 H         1 <0>         0.0376
     59 H24        -0.9433    4.5015  -15.2862 H         1 <0>         0.1447
     60 H25        -1.7612    5.8840  -17.1508 H         1 <0>         0.1446
     61 H26        -3.3193    8.7255  -14.3726 H         1 <0>         0.1481
@<TRIPOS>BOND
     1    1    2 1
     2    1   36 1
     3    1   37 1
     4    1   38 1
     5    2    7 ar
     6    2    3 ar
     7    3    4 ar
     8    3    8 1
     9    4    5 ar
    10    5    6 ar
    11    5   39 1
    12    6    7 ar
    13    6   40 1
    14    8   16 2
    15    8    9 1
    16    9   10 2
    17   10   15 1
    18   10   11 1
    19   11   12 2
    20   11   41 1
    21   12   13 1
    22   12   18 1
    23   13   14 2
    24   14   15 1
    25   14   17 1
    26   15   16 1
    27   17   42 1
    28   17   43 1
    29   18   19 1
    30   18   20 1
    31   19   44 1
    32   19   45 1
    33   19   46 1
    34   20   21 1
    35   20   47 1
    36   20   48 1
    37   21   22 1
    38   21   49 1
    39   21   50 1
    40   22   27 1
    41   22   23 1
    42   23   24 1
    43   23   51 1
    44   23   52 1
    45   24   25 1
    46   24   53 1
    47   24   54 1
    48   25   26 1
    49   25   28 1
    50   26   27 1
    51   26   55 1
    52   26   56 1
    53   27   57 1
    54   27   58 1
    55   28   33 ar
    56   28   29 ar
    57   29   30 ar
    58   29   59 1
    59   30   31 ar
    60   30   60 1
    61   31   32 ar
    62   31   35 1
    63   32   33 ar
    64   32   61 1
    65   33   34 1
@<TRIPOS>MOLECULE
CHEMBL162666
   55    56     0     0     0
SMALL
USER_CHARGES

@<TRIPOS>ATOM
      1 C1         -0.0933    1.4911    0.0615 C.3       1 <0>        -0.1512
      2 C2         -0.0664   -0.0385    0.0357 C.3       1 <0>        -0.1233
      3 C3          0.6760   -0.5146   -1.2145 C.3       1 <0>         0.0596
      4 O1          0.7010   -1.9431   -1.2385 O.3       1 <0>        -0.3442
      5 C4          1.3222   -2.5266   -2.2822 C.2       1 <0>         0.5260
      6 O2          1.8286   -1.8412   -3.1482 O.2       1 <0>        -0.4767
      7 C5          1.3873   -3.9975   -2.3735 C.ar      1 <0>        -0.1544
      8 C6          0.3231   -4.7228   -2.9133 C.ar      1 <0>         0.0483
      9 C7          0.4360   -6.1146   -2.9770 C.ar      1 <0>        -0.1858
     10 C8          1.5998   -6.7278   -2.5025 C.ar      1 <0>         0.2092
     11 N1          2.5844   -6.0160   -1.9996 N.ar      1 <0>        -0.4620
     12 C9          2.5259   -4.6927   -1.9230 C.ar      1 <0>         0.2453
     13 C10         3.6662   -3.9403   -1.3534 C.ar      1 <0>        -0.0679
     14 C11         3.4396   -2.9087   -0.4417 C.ar      1 <0>        -0.1038
     15 C12         4.5068   -2.2112    0.0856 C.ar      1 <0>        -0.1177
     16 C13         5.7996   -2.5325   -0.2882 C.ar      1 <0>        -0.0985
     17 C14         6.0310   -3.5544   -1.1918 C.ar      1 <0>        -0.1210
     18 C15         4.9727   -4.2636   -1.7215 C.ar      1 <0>        -0.0690
     19 C16         1.7273   -8.2280   -2.5680 C.3       1 <0>        -0.0878
     20 C17         2.3618   -8.6282   -3.9014 C.3       1 <0>        -0.1488
     21 C18        -0.6614   -6.9284   -3.5387 C.2       1 <0>         0.4116
     22 O3         -0.6817   -7.1845   -4.7274 O.2       1 <0>        -0.4214
     23 S1         -1.9412   -7.5279   -2.4864 S.3       1 <0>        -0.1606
     24 C19        -3.0319   -8.4510   -3.6039 C.3       1 <0>        -0.0961
     25 C20        -4.2021   -9.0334   -2.8087 C.3       1 <0>        -0.1392
     26 C21        -0.9146   -4.0236   -3.4136 C.3       1 <0>        -0.1006
     27 C22        -0.7422   -3.6785   -4.8942 C.3       1 <0>         0.0797
     28 O4         -1.9158   -3.0155   -5.3686 O.3       1 <0>        -0.5681
     29 H1          0.9278    1.8722    0.0780 H         1 <0>         0.0590
     30 H2         -0.6046    1.8605   -0.8275 H         1 <0>         0.0590
     31 H3         -0.6221    1.8303    0.9522 H         1 <0>         0.0673
     32 H4          0.4449   -0.4079    0.9247 H         1 <0>         0.0756
     33 H5         -1.0875   -0.4195    0.0192 H         1 <0>         0.0761
     34 H6          0.1646   -0.1451   -2.1034 H         1 <0>         0.0719
     35 H7          1.6970   -0.1335   -1.1980 H         1 <0>         0.0726
     36 H8          2.4308   -2.6565   -0.1497 H         1 <0>         0.1322
     37 H9          4.3327   -1.4125    0.7914 H         1 <0>         0.1298
     38 H10         6.6316   -1.9831    0.1269 H         1 <0>         0.1288
     39 H11         7.0424   -3.8005   -1.4796 H         1 <0>         0.1310
     40 H12         5.1549   -5.0642   -2.4231 H         1 <0>         0.1306
     41 H13         2.3556   -8.5754   -1.7478 H         1 <0>         0.1006
     42 H14         0.7391   -8.6806   -2.4855 H         1 <0>         0.0850
     43 H15         1.7335   -8.2808   -4.7216 H         1 <0>         0.0596
     44 H16         3.3500   -8.1756   -3.9839 H         1 <0>         0.0644
     45 H17         2.4540   -9.7132   -3.9488 H         1 <0>         0.0717
     46 H18        -3.4137   -7.7812   -4.3744 H         1 <0>         0.0955
     47 H19        -2.4717   -9.2607   -4.0716 H         1 <0>         0.0959
     48 H20        -3.8202   -9.7033   -2.0383 H         1 <0>         0.0692
     49 H21        -4.7623   -8.2237   -2.3411 H         1 <0>         0.0691
     50 H22        -4.8574   -9.5881   -3.4802 H         1 <0>         0.0817
     51 H23        -1.7768   -4.6792   -3.2914 H         1 <0>         0.0976
     52 H24        -1.0705   -3.1081   -2.8429 H         1 <0>         0.0967
     53 H25         0.1200   -3.0229   -5.0164 H         1 <0>         0.0553
     54 H26        -0.5863   -4.5940   -5.4649 H         1 <0>         0.0552
     55 H27        -1.8767   -2.7666   -6.3022 H         1 <0>         0.3871
@<TRIPOS>BOND
     1    1    2 1
     2    1   29 1
     3    1   30 1
     4    1   31 1
     5    2    3 1
     6    2   32 1
     7    2   33 1
     8    3    4 1
     9    3   34 1
    10    3   35 1
    11    4    5 1
    12    5    6 2
    13    5    7 1
    14    7   12 ar
    15    7    8 ar
    16    8    9 ar
    17    8   26 1
    18    9   10 ar
    19    9   21 1
    20   10   11 ar
    21   10   19 1
    22   11   12 ar
    23   12   13 1
    24   13   18 ar
    25   13   14 ar
    26   14   15 ar
    27   14   36 1
    28   15   16 ar
    29   15   37 1
    30   16   17 ar
    31   16   38 1
    32   17   18 ar
    33   17   39 1
    34   18   40 1
    35   19   20 1
    36   19   41 1
    37   19   42 1
    38   20   43 1
    39   20   44 1
    40   20   45 1
    41   21   22 2
    42   21   23 1
    43   23   24 1
    44   24   25 1
    45   24   46 1
    46   24   47 1
    47   25   48 1
    48   25   49 1
    49   25   50 1
    50   26   27 1
    51   26   51 1
    52   26   52 1
    53   27   28 1
    54   27   53 1
    55   27   54 1
    56   28   55 1
@<TRIPOS>MOLECULE
CHEMBL177330
   31    34     0     0     0
SMALL
USER_CHARGES

@<TRIPOS>ATOM
      1 C1         -0.0167    1.3799    0.0096 C.ar      1 <0>        -0.0805
      2 C2          1.1936    2.0589    0.0017 C.ar      1 <0>        -0.1557
      3 C3          2.3749    1.3396   -0.0134 C.ar      1 <0>         0.1040
      4 N1          2.3648    0.0226   -0.0204 N.ar      1 <0>        -0.4634
      5 C4          1.2295   -0.6645   -0.0132 C.ar      1 <0>         0.1587
      6 C5          0.0021   -0.0041    0.0020 C.ar      1 <0>        -0.1222
      7 C6          1.2669   -2.1462   -0.0216 C.2       1 <0>         0.2401
      8 C7          2.4822   -2.8058   -0.0310 C.2       1 <0>        -0.1736
      9 C8          2.4808   -4.2130   -0.0387 C.2       1 <0>         0.3474
     10 N2          3.4375   -5.1276   -0.0488 N.2       1 <0>        -0.5173
     11 C9          2.8912   -6.3474   -0.0531 C.2       1 <0>         0.3533
     12 N3          1.5745   -6.2377   -0.0460 N.2       1 <0>        -0.3183
     13 N4          1.2764   -4.8691   -0.0366 N.pl3     1 <0>        -0.3589
     14 C10         0.1145   -4.1584   -0.0267 C.2       1 <0>         0.6527
     15 N5          0.1211   -2.8453   -0.0144 N.2       1 <0>        -0.5469
     16 N6         -1.0870   -4.8280   -0.0246 N.pl3     1 <0>        -0.8075
     17 C11         3.6425   -7.6201   -0.0647 C.2       1 <0>         0.0358
     18 C12         4.9959   -7.7475   -0.0666 C.2       1 <0>        -0.1259
     19 C13         5.2736   -9.1288   -0.0788 C.2       1 <0>        -0.2188
     20 C14         4.0881   -9.7697   -0.0836 C.2       1 <0>        -0.0074
     21 O1          3.1051   -8.8553   -0.0692 O.3       1 <0>        -0.1607
     22 H1         -0.9522    1.9193    0.0259 H         1 <0>         0.1414
     23 H2          1.2129    3.1387    0.0070 H         1 <0>         0.1411
     24 H3          3.3184    1.8651   -0.0200 H         1 <0>         0.1651
     25 H4         -0.9212   -0.5643    0.0082 H         1 <0>         0.1484
     26 H5          3.4106   -2.2540   -0.0328 H         1 <0>         0.1772
     27 H6         -1.1017   -5.7979   -0.0302 H         1 <0>         0.4249
     28 H7         -1.9196   -4.3304   -0.0176 H         1 <0>         0.4296
     29 H8          5.7187   -6.9450   -0.0605 H         1 <0>         0.1636
     30 H9          6.2514   -9.5872   -0.0840 H         1 <0>         0.1599
     31 H10         3.9515  -10.8410   -0.0934 H         1 <0>         0.2136
@<TRIPOS>BOND
     1    1    6 ar
     2    1    2 ar
     3    1   22 1
     4    2    3 ar
     5    2   23 1
     6    3    4 ar
     7    3   24 1
     8    4    5 ar
     9    5    6 ar
    10    5    7 1
    11    6   25 1
    12    7   15 1
    13    7    8 2
    14    8    9 1
    15    8   26 1
    16    9   13 1
    17    9   10 2
    18   10   11 1
    19   11   12 2
    20   11   17 1
    21   12   13 1
    22   13   14 1
    23   14   15 2
    24   14   16 1
    25   16   27 1
    26   16   28 1
    27   17   21 1
    28   17   18 2
    29   18   19 1
    30   18   29 1
    31   19   20 2
    32   19   30 1
    33   20   21 1
    34   20   31 1
@<TRIPOS>MOLECULE
CHEMBL1095999
   29    32     0     0     0
SMALL
USER_CHARGES

@<TRIPOS>ATOM
      1 C1         -0.0167    1.3824    0.0096 C.ar      1 <0>        -0.0954
      2 C2          1.1645    2.0973    0.0022 C.ar      1 <0>        -0.1026
      3 C3          2.3817    1.4341   -0.0130 C.ar      1 <0>        -0.0518
      4 C4          2.4138    0.0464   -0.0208 C.ar      1 <0>        -0.1438
      5 C5          1.2127   -0.6822   -0.0132 C.ar      1 <0>        -0.0416
      6 C6          0.0021   -0.0041    0.0020 C.ar      1 <0>        -0.0663
      7 C7          1.5399   -2.1306   -0.0241 C.ar      1 <0>         0.3093
      8 C8          2.9422   -2.2720   -0.0383 C.ar      1 <0>        -0.3380
      9 C9          3.4878   -3.5692   -0.0501 C.ar      1 <0>         0.3710
     10 N1          2.6516   -4.6122   -0.0473 N.ar      1 <0>        -0.5617
     11 C10         1.3417   -4.4312   -0.0338 C.ar      1 <0>         0.6062
     12 N2          0.7889   -3.2215   -0.0228 N.ar      1 <0>        -0.5585
     13 N3          0.5182   -5.5378   -0.0319 N.pl3     1 <0>        -0.8023
     14 C11         4.9453   -3.7728   -0.0657 C.2       1 <0>        -0.0102
     15 C12         5.6189   -4.7850    0.5511 C.2       1 <0>        -0.1296
     16 C13         6.9835   -4.5902    0.2746 C.2       1 <0>        -0.2262
     17 C14         7.0788   -3.4813   -0.4892 C.2       1 <0>        -0.0009
     18 O1          5.8467   -2.9944   -0.6971 O.3       1 <0>        -0.1430
     19 C15         3.5355   -0.9268   -0.0368 C.2       1 <0>         0.4605
     20 O2          4.7213   -0.6611   -0.0468 O.2       1 <0>        -0.4048
     21 H1         -0.9610    1.9063    0.0260 H         1 <0>         0.1403
     22 H2          1.1400    3.1770    0.0079 H         1 <0>         0.1407
     23 H3          3.3038    1.9963   -0.0192 H         1 <0>         0.1406
     24 H4         -0.9259   -0.5565    0.0083 H         1 <0>         0.1401
     25 H5          0.9026   -6.4283   -0.0404 H         1 <0>         0.4216
     26 H6         -0.4452   -5.4254   -0.0221 H         1 <0>         0.4211
     27 H7          5.1878   -5.5819    1.1389 H         1 <0>         0.1570
     28 H8          7.8013   -5.2106    0.6103 H         1 <0>         0.1571
     29 H9          7.9956   -3.0584   -0.8729 H         1 <0>         0.2114
@<TRIPOS>BOND
     1    1    6 ar
     2    1    2 ar
     3    1   21 1
     4    2    3 ar
     5    2   22 1
     6    3    4 ar
     7    3   23 1
     8    4   19 1
     9    4    5 ar
    10    5    6 ar
    11    5    7 1
    12    6   24 1
    13    7   12 ar
    14    7    8 ar
    15    8    9 ar
    16    8   19 1
    17    9   10 ar
    18    9   14 1
    19   10   11 ar
    20   11   12 ar
    21   11   13 1
    22   13   25 1
    23   13   26 1
    24   14   18 1
    25   14   15 2
    26   15   16 1
    27   15   27 1
    28   16   17 2
    29   16   28 1
    30   17   18 1
    31   17   29 1
    32   19   20 2
@<TRIPOS>MOLECULE
CHEMBL368525
   65    69     0     0     0
SMALL
USER_CHARGES

@<TRIPOS>ATOM
      1 C1         -0.0403    1.4884    0.0147 C.3       1 <0>        -0.1659
      2 C2         -0.0220   -0.0412   -0.0116 C.3       1 <0>        -0.0872
      3 C3          0.7085   -0.5639    1.2270 C.3       1 <0>        -0.1659
      4 C4         -1.4583   -0.5684   -0.0171 C.3       1 <0>        -0.1473
      5 C5          0.7022   -0.5210   -1.2711 C.3       1 <0>        -0.0056
      6 N1          2.0812   -0.0148   -1.2659 N.4       1 <0>        -0.5100
      7 C6          2.7765   -0.4755   -2.4752 C.3       1 <0>         0.0268
      8 C7          2.9030   -2.0003   -2.4409 C.3       1 <0>        -0.1593
      9 C8          3.5975   -2.4799   -3.7194 C.3       1 <0>         0.1261
     10 N2          4.8772   -1.7711   -3.8568 N.pl3     1 <0>        -0.6365
     11 C9          4.8797   -0.3025   -3.8116 C.3       1 <0>         0.1259
     12 C10         4.1708    0.1527   -2.5321 C.3       1 <0>        -0.1592
     13 C11         6.0688   -2.4800   -4.0267 C.ar      1 <0>         0.1978
     14 C12         6.0686   -3.8683   -3.9525 C.ar      1 <0>        -0.1740
     15 C13         7.2453   -4.5732   -4.1199 C.ar      1 <0>        -0.0728
     16 C14         8.4280   -3.9035   -4.3618 C.ar      1 <0>        -0.1332
     17 C15         8.4382   -2.5110   -4.4380 C.ar      1 <0>        -0.0036
     18 C16         7.2512   -1.7996   -4.2750 C.ar      1 <0>        -0.1454
     19 C17         9.7070   -1.7903   -4.6977 C.2       1 <0>         0.2401
     20 C18        10.8814   -2.5003   -4.8703 C.2       1 <0>        -0.2063
     21 C19        12.0671   -1.7844   -5.1155 C.2       1 <0>         0.3505
     22 N3         13.3251   -2.1422   -5.3204 N.2       1 <0>        -0.5187
     23 C20        14.0761   -1.0522   -5.5072 C.2       1 <0>         0.3594
     24 N4         13.3143    0.0239   -5.4257 N.2       1 <0>        -0.3185
     25 N5         12.0084   -0.4151   -5.1729 N.pl3     1 <0>        -0.3618
     26 C21        10.8186    0.2229   -4.9940 C.2       1 <0>         0.6552
     27 N6          9.7132   -0.4502   -4.7704 N.2       1 <0>        -0.5546
     28 N7         10.7728    1.5963   -5.0535 N.pl3     1 <0>        -0.8075
     29 C22        15.5315   -1.0513   -5.7647 C.2       1 <0>         0.0290
     30 C23        16.3260   -2.1505   -5.8569 C.2       1 <0>        -0.1221
     31 C24        17.6326   -1.6870   -6.1084 C.2       1 <0>        -0.2191
     32 C25        17.5716   -0.3417   -6.1569 C.2       1 <0>        -0.0031
     33 O1         16.3000    0.0386   -5.9546 O.3       1 <0>        -0.1608
     34 H1          0.9830    1.8640    0.0185 H         1 <0>         0.0507
     35 H2         -0.5607    1.8608   -0.8678 H         1 <0>         0.0740
     36 H3         -0.5562    1.8302    0.9119 H         1 <0>         0.0854
     37 H4          0.1926   -0.2221    2.1243 H         1 <0>         0.0855
     38 H5          0.7215   -1.6537    1.2082 H         1 <0>         0.0739
     39 H6          1.7317   -0.1883    1.2308 H         1 <0>         0.0505
     40 H7         -1.9787   -0.1961   -0.8995 H         1 <0>         0.0688
     41 H8         -1.4452   -1.6582   -0.0358 H         1 <0>         0.0687
     42 H9         -1.9742   -0.2266    0.8802 H         1 <0>         0.0784
     43 H10         0.7152   -1.6108   -1.2899 H         1 <0>         0.1343
     44 H11         0.1818   -0.1487   -2.1535 H         1 <0>         0.1336
     45 H12         2.0691    0.9939   -1.2486 H         1 <0>         0.4257
     46 H13         2.2080   -0.1782   -3.3564 H         1 <0>         0.1408
     47 H14         3.4925   -2.2970   -1.5734 H         1 <0>         0.0925
     48 H15         1.9106   -2.4464   -2.3768 H         1 <0>         0.0979
     49 H16         3.7790   -3.5528   -3.6561 H         1 <0>         0.1044
     50 H17         2.9660   -2.2642   -4.5812 H         1 <0>         0.0748
     51 H18         5.9072    0.0612   -3.8093 H         1 <0>         0.1058
     52 H19         4.3527    0.0907   -4.6810 H         1 <0>         0.0747
     53 H20         4.0807    1.2389   -2.5329 H         1 <0>         0.0982
     54 H21         4.7484   -0.1643   -1.6638 H         1 <0>         0.0922
     55 H22         5.1463   -4.3972   -3.7630 H         1 <0>         0.1256
     56 H23         7.2397   -5.6516   -4.0609 H         1 <0>         0.1334
     57 H24         9.3456   -4.4580   -4.4918 H         1 <0>         0.1338
     58 H25         7.2528   -0.7215   -4.3379 H         1 <0>         0.1372
     59 H26        10.8879   -3.5790   -4.8177 H         1 <0>         0.1689
     60 H27        11.5835    2.1017   -5.2216 H         1 <0>         0.4261
     61 H28         9.9299    2.0594   -4.9273 H         1 <0>         0.4276
     62 H29        16.0158   -3.1801   -5.7563 H         1 <0>         0.1636
     63 H30        18.5158   -2.2949   -6.2379 H         1 <0>         0.1612
     64 H31        18.4064    0.3205   -6.3334 H         1 <0>         0.2150
     65 H32         2.5629   -0.3595   -0.4491 H         1 <0>         0.4241
@<TRIPOS>BOND
     1    1    2 1
     2    1   34 1
     3    1   35 1
     4    1   36 1
     5    2    3 1
     6    2    4 1
     7    2    5 1
     8    3   37 1
     9    3   38 1
    10    3   39 1
    11    4   40 1
    12    4   41 1
    13    4   42 1
    14    5    6 1
    15    5   43 1
    16    5   44 1
    17    6    7 1
    18    6   45 1
    19    6   65 1
    20    7   12 1
    21    7    8 1
    22    7   46 1
    23    8    9 1
    24    8   47 1
    25    8   48 1
    26    9   10 1
    27    9   49 1
    28    9   50 1
    29   10   11 1
    30   10   13 1
    31   11   12 1
    32   11   51 1
    33   11   52 1
    34   12   53 1
    35   12   54 1
    36   13   18 ar
    37   13   14 ar
    38   14   15 ar
    39   14   55 1
    40   15   16 ar
    41   15   56 1
    42   16   17 ar
    43   16   57 1
    44   17   18 ar
    45   17   19 1
    46   18   58 1
    47   19   27 1
    48   19   20 2
    49   20   21 1
    50   20   59 1
    51   21   25 1
    52   21   22 2
    53   22   23 1
    54   23   24 2
    55   23   29 1
    56   24   25 1
    57   25   26 1
    58   26   27 2
    59   26   28 1
    60   28   60 1
    61   28   61 1
    62   29   33 1
    63   29   30 2
    64   30   31 1
    65   30   62 1
    66   31   32 2
    67   31   63 1
    68   32   33 1
    69   32   64 1
@<TRIPOS>MOLECULE
CHEMBL330982
   36    40     0     0     0
SMALL
USER_CHARGES

@<TRIPOS>ATOM
      1 C1         -0.0167    1.3790    0.0096 C.ar      1 <0>        -0.0958
      2 C2          1.1687    2.0918    0.0021 C.ar      1 <0>        -0.1237
      3 C3          2.3774    1.4257   -0.0135 C.ar      1 <0>        -0.0770
      4 C4          2.4021    0.0327   -0.0212 C.ar      1 <0>        -0.0287
      5 C5          1.2052   -0.6804   -0.0131 C.ar      1 <0>        -0.0700
      6 C6          0.0021   -0.0041    0.0020 C.ar      1 <0>        -0.1250
      7 C7          3.6988   -0.6891   -0.0385 C.2       1 <0>         0.3132
      8 N1          3.8432   -2.0159   -0.0524 N.2       1 <0>        -0.5255
      9 C8          5.1288   -2.3235   -0.0661 C.2       1 <0>         0.3466
     10 C9          5.8476   -3.5362   -0.0841 C.2       1 <0>        -0.0191
     11 C10         7.2454   -3.4925   -0.0957 C.2       1 <0>         0.2746
     12 N2          7.6757   -4.7693   -0.1112 N.2       1 <0>        -0.4663
     13 C11         6.6532   -5.5785   -0.1099 C.2       1 <0>         0.2838
     14 N3          5.5028   -4.8676   -0.0935 N.pl3     1 <0>        -0.5447
     15 H1          4.6027   -5.2292   -0.0894 H         1 <0>         0.4375
     16 N4          7.8728   -2.3038   -0.0901 N.2       1 <0>        -0.4375
     17 C12         7.2046   -1.1752   -0.0740 C.2       1 <0>         0.4494
     18 N5          5.8375   -1.1496   -0.0607 N.pl3     1 <0>        -0.3233
     19 N6          4.8886   -0.1194   -0.0482 N.2       1 <0>        -0.3026
     20 C13         7.9486    0.1019   -0.0681 C.ar      1 <0>        -0.0773
     21 C14         7.2586    1.3151   -0.0451 C.ar      1 <0>        -0.0815
     22 C15         7.9591    2.5035   -0.0398 C.ar      1 <0>        -0.1294
     23 C16         9.3426    2.4947   -0.0575 C.ar      1 <0>        -0.0859
     24 C17        10.0327    1.2957   -0.0803 C.ar      1 <0>        -0.1318
     25 C18         9.3444    0.1001   -0.0796 C.ar      1 <0>        -0.0528
     26 H2         -0.9602    1.9042    0.0260 H         1 <0>         0.1289
     27 H3          1.1483    3.1716    0.0081 H         1 <0>         0.1318
     28 H4          3.3023    1.9832   -0.0200 H         1 <0>         0.1330
     29 H5          1.2187   -1.7603   -0.0194 H         1 <0>         0.1350
     30 H6         -0.9264   -0.5558    0.0079 H         1 <0>         0.1311
     31 H7          6.7157   -6.6566   -0.1208 H         1 <0>         0.2383
     32 H8          6.1787    1.3233   -0.0320 H         1 <0>         0.1574
     33 H9          7.4265    3.4429   -0.0221 H         1 <0>         0.1314
     34 H10         9.8862    3.4279   -0.0540 H         1 <0>         0.1292
     35 H11        11.1126    1.2958   -0.0940 H         1 <0>         0.1335
     36 H12         9.8843   -0.8352   -0.0928 H         1 <0>         0.1431
@<TRIPOS>BOND
     1    1    6 ar
     2    1    2 ar
     3    1   26 1
     4    2    3 ar
     5    2   27 1
     6    3    4 ar
     7    3   28 1
     8    4    5 ar
     9    4    7 1
    10    5    6 ar
    11    5   29 1
    12    6   30 1
    13    7   19 2
    14    7    8 1
    15    8    9 2
    16    9   18 1
    17    9   10 1
    18   10   14 1
    19   10   11 2
    20   11   12 1
    21   11   16 1
    22   12   13 2
    23   13   14 1
    24   13   31 1
    25   14   15 1
    26   16   17 2
    27   17   18 1
    28   17   20 1
    29   18   19 1
    30   20   25 ar
    31   20   21 ar
    32   21   22 ar
    33   21   32 1
    34   22   23 ar
    35   22   33 1
    36   23   24 ar
    37   23   34 1
    38   24   25 ar
    39   24   35 1
    40   25   36 1
@<TRIPOS>MOLECULE
CHEMBL404864
   55    58     0     0     0
SMALL
USER_CHARGES

@<TRIPOS>ATOM
      1 C1         -0.0174    1.5029    0.0163 C.3       1 <0>        -0.0785
      2 C2          0.0028   -0.0040    0.0067 C.2       1 <0>         0.0213
      3 C3         -1.0824   -0.8047    0.0055 C.2       1 <0>        -0.2237
      4 C4         -0.6156   -2.1325   -0.0046 C.2       1 <0>        -0.1083
      5 C5          0.7438   -2.0698   -0.0090 C.2       1 <0>         0.0067
      6 O1          1.1033   -0.7711   -0.0079 O.3       1 <0>        -0.1516
      7 C6          1.6639   -3.2233   -0.0197 C.ar      1 <0>         0.4644
      8 N1          1.1612   -4.4528   -0.0311 N.ar      1 <0>        -0.5054
      9 C7          1.9607   -5.5134   -0.0409 C.ar      1 <0>         0.4403
     10 C8          3.3411   -5.3227   -0.0390 C.ar      1 <0>        -0.2593
     11 C9          3.8312   -4.0210   -0.0269 C.ar      1 <0>         0.4527
     12 N2          2.9741   -3.0063   -0.0230 N.ar      1 <0>        -0.5444
     13 N3          5.2072   -3.7839   -0.0245 N.pl3     1 <0>        -0.3329
     14 C10         5.8270   -2.6608   -0.4732 C.2       1 <0>         0.1173
     15 C11         7.1571   -2.8288   -0.2951 C.2       1 <0>        -0.2611
     16 C12         7.3603   -4.0894    0.2785 C.2       1 <0>         0.1017
     17 N4          6.1949   -4.6588    0.4463 N.2       1 <0>        -0.2846
     18 C13         8.6944   -4.6863    0.6461 C.3       1 <0>        -0.0760
     19 C14         5.1541   -1.4481   -1.0627 C.3       1 <0>        -0.0890
     20 N5          1.4270   -6.7978   -0.0524 N.am      1 <0>        -0.6481
     21 C15         0.0948   -6.9750    0.0491 C.2       1 <0>         0.5058
     22 O2         -0.6457   -6.0146    0.0576 O.2       1 <0>        -0.4321
     23 C16        -0.4747   -8.3664    0.1520 C.3       1 <0>         0.0638
     24 O3         -1.8985   -8.2925    0.2486 O.3       1 <0>        -0.2622
     25 C17        -2.5698   -9.4648    0.3488 C.ar      1 <0>         0.5111
     26 N6         -1.8893  -10.5995    0.3578 N.ar      1 <0>        -0.5779
     27 C18        -2.5134  -11.7620    0.4544 C.ar      1 <0>         0.2165
     28 C19        -3.8961  -11.7809    0.5467 C.ar      1 <0>        -0.2667
     29 C20        -4.5767  -10.5736    0.5343 C.ar      1 <0>         0.2198
     30 N7         -3.8897   -9.4469    0.4407 N.ar      1 <0>        -0.5251
     31 C21        -6.0803  -10.5445    0.6318 C.3       1 <0>        -0.1093
     32 C22        -1.7306  -13.0497    0.4634 C.3       1 <0>        -0.1090
     33 H1          1.0052    1.8801    0.0100 H         1 <0>         0.0792
     34 H2         -0.5437    1.8648   -0.8670 H         1 <0>         0.0912
     35 H3         -0.5285    1.8536    0.9129 H         1 <0>         0.0910
     36 H4         -2.1146   -0.4871    0.0115 H         1 <0>         0.1575
     37 H5         -1.2194   -3.0278   -0.0078 H         1 <0>         0.1669
     38 H6          4.0152   -6.1665   -0.0464 H         1 <0>         0.1630
     39 H7          7.9270   -2.1159   -0.5509 H         1 <0>         0.1594
     40 H8          8.9433   -4.4154    1.6721 H         1 <0>         0.0833
     41 H9          8.6432   -5.7716    0.5591 H         1 <0>         0.0771
     42 H10         9.4615   -4.3036   -0.0271 H         1 <0>         0.0840
     43 H11         4.9184   -0.7408   -0.2675 H         1 <0>         0.0887
     44 H12         5.8224   -0.9758   -1.7828 H         1 <0>         0.0835
     45 H13         4.2348   -1.7505   -1.5642 H         1 <0>         0.0787
     46 H14         2.0136   -7.5661   -0.1335 H         1 <0>         0.4274
     47 H15        -0.1999   -8.9380   -0.7345 H         1 <0>         0.1078
     48 H16        -0.0753   -8.8577    1.0393 H         1 <0>         0.1084
     49 H17        -4.4313  -12.7155    0.6262 H         1 <0>         0.1525
     50 H18        -6.3753  -10.4889    1.6796 H         1 <0>         0.0910
     51 H19        -6.4620   -9.6729    0.1001 H         1 <0>         0.0871
     52 H20        -6.4909  -11.4506    0.1863 H         1 <0>         0.0866
     53 H21        -1.4738  -13.3116    1.4899 H         1 <0>         0.0895
     54 H22        -2.3340  -13.8449    0.0257 H         1 <0>         0.0855
     55 H23        -0.8176  -12.9240   -0.1187 H         1 <0>         0.0841
@<TRIPOS>BOND
     1    1    2 1
     2    1   33 1
     3    1   34 1
     4    1   35 1
     5    2    6 1
     6    2    3 2
     7    3    4 1
     8    3   36 1
     9    4    5 2
    10    4   37 1
    11    5    6 1
    12    5    7 1
    13    7   12 ar
    14    7    8 ar
    15    8    9 ar
    16    9   10 ar
    17    9   20 1
    18   10   11 ar
    19   10   38 1
    20   11   12 ar
    21   11   13 1
    22   13   17 1
    23   13   14 1
    24   14   15 2
    25   14   19 1
    26   15   16 1
    27   15   39 1
    28   16   17 2
    29   16   18 1
    30   18   40 1
    31   18   41 1
    32   18   42 1
    33   19   43 1
    34   19   44 1
    35   19   45 1
    36   20   21 am
    37   20   46 1
    38   21   22 2
    39   21   23 1
    40   23   24 1
    41   23   47 1
    42   23   48 1
    43   24   25 1
    44   25   30 ar
    45   25   26 ar
    46   26   27 ar
    47   27   28 ar
    48   27   32 1
    49   28   29 ar
    50   28   49 1
    51   29   30 ar
    52   29   31 1
    53   31   50 1
    54   31   51 1
    55   31   52 1
    56   32   53 1
    57   32   54 1
    58   32   55 1
@<TRIPOS>MOLECULE
CHEMBL259607
   36    39     0     0     0
SMALL
USER_CHARGES

@<TRIPOS>ATOM
      1 C1         -0.0167    1.3792    0.0096 C.ar      1 <0>        -0.0931
      2 C2          1.1685    2.0928    0.0021 C.ar      1 <0>        -0.1257
      3 C3          2.3774    1.4278   -0.0134 C.ar      1 <0>        -0.0635
      4 C4          2.4029    0.0333   -0.0211 C.ar      1 <0>        -0.0745
      5 C5          1.2046   -0.6805   -0.0130 C.ar      1 <0>        -0.0864
      6 C6          0.0021   -0.0041    0.0020 C.ar      1 <0>        -0.1199
      7 C7          3.6971   -0.6866   -0.0382 C.ar      1 <0>         0.3266
      8 C8          3.8458   -1.9115    0.6457 C.ar      1 <0>        -0.1884
      9 C9          5.1026   -2.5515    0.5936 C.ar      1 <0>         0.3282
     10 N1          6.0870   -1.9779   -0.0927 N.ar      1 <0>        -0.5628
     11 C10         5.9007   -0.8260   -0.7197 C.ar      1 <0>         0.5997
     12 N2          4.7369   -0.1924   -0.7029 N.ar      1 <0>        -0.5621
     13 N3          6.9533   -0.2694   -1.4195 N.pl3     1 <0>        -0.8051
     14 C11         5.3215   -3.8382    1.2908 C.ar      1 <0>        -0.0638
     15 C12         4.6815   -4.0937    2.5044 C.ar      1 <0>        -0.0731
     16 C13         4.8866   -5.2927    3.1531 C.ar      1 <0>        -0.1000
     17 C14         5.7285   -6.2491    2.6031 C.ar      1 <0>         0.0604
     18 C15         6.3707   -5.9995    1.3903 C.ar      1 <0>         0.0268
     19 C16         6.1640   -4.8011    0.7335 C.ar      1 <0>        -0.0453
     20 O1          7.1333   -7.0857    1.0696 O.3       1 <0>        -0.3039
     21 C17         7.2727   -7.8317    2.2932 C.3       1 <0>         0.2121
     22 O2          6.0896   -7.4905    3.0391 O.3       1 <0>        -0.3036
     23 C18         2.7543   -2.4880    1.3715 C.1       1 <0>         0.2685
     24 N4          1.8883   -2.9453    1.9472 N.1       1 <0>        -0.4030
     25 H1         -0.9604    1.9042    0.0260 H         1 <0>         0.1291
     26 H2          1.1475    3.1726    0.0081 H         1 <0>         0.1314
     27 H3          3.3020    1.9860   -0.0199 H         1 <0>         0.1343
     28 H4          1.2180   -1.7604   -0.0192 H         1 <0>         0.1252
     29 H5         -0.9264   -0.5556    0.0079 H         1 <0>         0.1305
     30 H6          7.8111   -0.7214   -1.4459 H         1 <0>         0.4206
     31 H7          6.8347    0.5736   -1.8845 H         1 <0>         0.4206
     32 H8          4.0256   -3.3519    2.9355 H         1 <0>         0.1410
     33 H9          4.3909   -5.4883    4.0925 H         1 <0>         0.1456
     34 H10         6.6570   -4.6084   -0.2079 H         1 <0>         0.1481
     35 H11         7.3007   -8.9019    2.0881 H         1 <0>         0.1363
     36 H12         8.1679   -7.5204    2.8316 H         1 <0>         0.0894
@<TRIPOS>BOND
     1    1    6 ar
     2    1    2 ar
     3    1   25 1
     4    2    3 ar
     5    2   26 1
     6    3    4 ar
     7    3   27 1
     8    4    5 ar
     9    4    7 1
    10    5    6 ar
    11    5   28 1
    12    6   29 1
    13    7   12 ar
    14    7    8 ar
    15    8    9 ar
    16    8   23 1
    17    9   10 ar
    18    9   14 1
    19   10   11 ar
    20   11   12 ar
    21   11   13 1
    22   13   30 1
    23   13   31 1
    24   14   19 ar
    25   14   15 ar
    26   15   16 ar
    27   15   32 1
    28   16   17 ar
    29   16   33 1
    30   17   22 1
    31   17   18 ar
    32   18   19 ar
    33   18   20 1
    34   19   34 1
    35   20   21 1
    36   21   22 1
    37   21   35 1
    38   21   36 1
    39   23   24 3
@<TRIPOS>MOLECULE
CHEMBL222590
   65    71     0     0     0
SMALL
USER_CHARGES

@<TRIPOS>ATOM
      1 C1         -0.0168    1.3878    0.0097 C.ar      1 <0>        -0.0894
      2 C2          1.1394    2.1085    0.0025 C.ar      1 <0>        -0.1068
      3 C3          2.3735    1.4403   -0.0129 C.ar      1 <0>        -0.0833
      4 C4          3.5958    2.1321   -0.0204 C.ar      1 <0>         0.1461
      5 N1          4.7252    1.4637   -0.0344 N.ar      1 <0>        -0.4745
      6 C5          4.7749    0.1387   -0.0421 C.ar      1 <0>         0.0792
      7 C6          3.6458   -0.6234   -0.0363 C.ar      1 <0>        -0.1415
      8 C7          2.3969    0.0214   -0.0208 C.ar      1 <0>        -0.0368
      9 C8          1.1844   -0.6915   -0.0139 C.ar      1 <0>         0.1299
     10 C9          0.0021   -0.0041    0.0020 C.ar      1 <0>        -0.1976
     11 O1          1.1876   -2.0496   -0.0217 O.3       1 <0>        -0.2951
     12 C10        -0.0840   -2.7015   -0.0140 C.3       1 <0>         0.0476
     13 C11         0.1201   -4.2178   -0.0245 C.3       1 <0>        -0.1105
     14 H1          0.7450   -4.4965   -0.8730 H         1 <0>         0.1353
     15 C12         0.7986   -4.6540    1.2785 C.3       1 <0>        -0.1285
     16 C13        -0.1187   -4.2977    2.4492 C.3       1 <0>        -0.1434
     17 C14        -1.4834   -4.9706    2.2656 C.3       1 <0>         0.0152
     18 H2         -1.3593   -6.0535    2.2655 H         1 <0>         0.1485
     19 C15        -2.3743   -4.5555    3.4444 C.3       1 <0>         0.1085
     20 N2         -3.7378   -5.0514    3.2166 N.pl3     1 <0>        -0.5997
     21 C16        -4.3645   -4.7568    1.9177 C.3       1 <0>         0.0909
     22 C17        -3.3966   -5.1949    0.8163 C.3       1 <0>        -0.0219
     23 N3         -2.0887   -4.5456    0.9992 N.4       1 <0>        -0.3838
     24 C18        -1.2346   -4.9164   -0.1345 C.3       1 <0>         0.0003
     25 C19        -4.4030   -5.7637    4.1791 C.2       1 <0>         0.6636
     26 N4         -5.6756   -6.2138    3.9224 N.pl3     1 <0>        -0.7075
     27 C20        -6.1589   -7.3047    4.6443 C.2       1 <0>         0.6314
     28 N5         -5.6264   -7.4141    5.9185 N.pl3     1 <0>        -0.3828
     29 C21        -4.4513   -6.7673    6.2414 C.2       1 <0>         0.4988
     30 N6         -3.8039   -6.0073    5.3329 N.2       1 <0>        -0.5243
     31 N7         -4.1788   -7.0518    7.4889 N.2       1 <0>        -0.4756
     32 C22        -5.1368   -7.8531    7.9894 C.2       1 <0>         0.3324
     33 N8         -6.0398   -8.0923    7.0530 N.2       1 <0>        -0.2426
     34 C23        -5.1739   -8.3831    9.3682 C.2       1 <0>         0.0312
     35 C24        -4.2557   -8.1407   10.3412 C.2       1 <0>        -0.1239
     36 C25        -4.6839   -8.8403   11.4868 C.2       1 <0>        -0.2196
     37 C26        -5.8304   -9.4686   11.1601 C.2       1 <0>        -0.0005
     38 O2         -6.1265   -9.1855    9.8813 O.3       1 <0>        -0.1587
     39 N9         -7.0320   -8.1440    4.1645 N.2       1 <0>        -0.6516
     40 H3         -0.9645    1.9054    0.0261 H         1 <0>         0.1323
     41 H4          1.1065    3.1879    0.0083 H         1 <0>         0.1407
     42 H5          3.6063    3.2120   -0.0149 H         1 <0>         0.1712
     43 H6          5.7379   -0.3502   -0.0536 H         1 <0>         0.1586
     44 H7          3.7090   -1.7016   -0.0434 H         1 <0>         0.1418
     45 H8         -0.9303   -0.5490    0.0084 H         1 <0>         0.1233
     46 H9         -0.6337   -2.4151    0.8826 H         1 <0>         0.0576
     47 H10        -0.6497   -2.4049   -0.8972 H         1 <0>         0.0774
     48 H11         0.9674   -5.7307    1.2605 H         1 <0>         0.0905
     49 H12         1.7500   -4.1335    1.3877 H         1 <0>         0.1073
     50 H13         0.3322   -4.6414    3.3802 H         1 <0>         0.1237
     51 H14        -0.2507   -3.2165    2.4898 H         1 <0>         0.0920
     52 H15        -1.9806   -4.9828    4.3666 H         1 <0>         0.1546
     53 H16        -2.3905   -3.4685    3.5235 H         1 <0>         0.1034
     54 H17        -5.3004   -5.3080    1.8265 H         1 <0>         0.1248
     55 H18        -4.5565   -3.6870    1.8354 H         1 <0>         0.1131
     56 H19        -3.2671   -6.2764    0.8575 H         1 <0>         0.1395
     57 H20        -3.8050   -4.9177   -0.1556 H         1 <0>         0.1534
     58 H21        -1.7167   -4.6243   -1.0674 H         1 <0>         0.1399
     59 H22        -1.0853   -5.9961   -0.1307 H         1 <0>         0.1416
     60 H23        -3.3691   -7.5304   10.2528 H         1 <0>         0.1629
     61 H24        -4.1871   -8.8680   12.4453 H         1 <0>         0.1612
     62 H25        -6.4163  -10.0925   11.8188 H         1 <0>         0.2155
     63 H26        -7.3763   -8.0247    3.2655 H         1 <0>         0.3682
     64 H27        -6.2272   -5.7809    3.2522 H         1 <0>         0.4279
     65 H28        -2.2128   -3.5443    1.0046 H         1 <0>         0.4185
@<TRIPOS>BOND
     1    1   10 ar
     2    1    2 ar
     3    1   40 1
     4    2    3 ar
     5    2   41 1
     6    3    8 ar
     7    3    4 ar
     8    4    5 ar
     9    4   42 1
    10    5    6 ar
    11    6    7 ar
    12    6   43 1
    13    7    8 ar
    14    7   44 1
    15    8    9 ar
    16    9   10 ar
    17    9   11 1
    18   10   45 1
    19   11   12 1
    20   12   13 1
    21   12   46 1
    22   12   47 1
    23   13   14 1
    24   13   24 1
    25   13   15 1
    26   15   16 1
    27   15   48 1
    28   15   49 1
    29   16   17 1
    30   16   50 1
    31   16   51 1
    32   17   18 1
    33   17   23 1
    34   17   19 1
    35   19   20 1
    36   19   52 1
    37   19   53 1
    38   20   21 1
    39   20   25 1
    40   21   22 1
    41   21   54 1
    42   21   55 1
    43   22   23 1
    44   22   56 1
    45   22   57 1
    46   23   24 1
    47   23   65 1
    48   24   58 1
    49   24   59 1
    50   25   30 2
    51   25   26 1
    52   26   27 1
    53   26   64 1
    54   27   28 1
    55   27   39 2
    56   28   33 1
    57   28   29 1
    58   29   30 1
    59   29   31 2
    60   31   32 1
    61   32   33 2
    62   32   34 1
    63   34   38 1
    64   34   35 2
    65   35   36 1
    66   35   60 1
    67   36   37 2
    68   36   61 1
    69   37   38 1
    70   37   62 1
    71   39   63 1
@<TRIPOS>MOLECULE
CHEMBL516753
   65    71     0     0     0
SMALL
USER_CHARGES

@<TRIPOS>ATOM
      1 C1         -0.1497    1.5137   -0.1171 C.3       1 <0>        -0.1449
      2 C2          0.0021   -0.0041    0.0020 C.3       1 <0>         0.1307
      3 C3          0.7325   -0.5322   -1.2057 C.ar      1 <0>         0.1629
      4 C4          2.1257   -0.5411   -1.2054 C.ar      1 <0>        -0.1690
      5 C5          2.8045   -1.0160   -2.2913 C.ar      1 <0>        -0.0546
      6 C6          2.0576   -1.4864   -3.3878 C.ar      1 <0>        -0.1030
      7 C7          2.6858   -1.9897   -4.5384 C.ar      1 <0>        -0.0873
      8 C8          1.9282   -2.4357   -5.5780 C.ar      1 <0>        -0.0805
      9 C9          0.5365   -2.3996   -5.5156 C.ar      1 <0>        -0.0942
     10 C10        -0.1049   -1.9181   -4.4164 C.ar      1 <0>        -0.0855
     11 C11         0.6427   -1.4488   -3.3221 C.ar      1 <0>         0.1276
     12 N1          0.0401   -0.9759   -2.2265 N.ar      1 <0>        -0.4383
     13 C12         2.6036   -2.9752   -6.8125 C.3       1 <0>        -0.0964
     14 C13         2.8239   -4.4811   -6.6565 C.3       1 <0>         0.1440
     15 N2          3.4804   -5.0055   -7.8566 N.pl3     1 <0>        -0.3554
     16 C14         2.8513   -5.4781   -8.9692 C.2       1 <0>         0.3709
     17 C15         3.8601   -5.8729   -9.8610 C.2       1 <0>        -0.2670
     18 C16         5.0941   -5.6171   -9.2366 C.2       1 <0>         0.1317
     19 N3          4.8626   -5.1018   -8.0603 N.2       1 <0>        -0.2635
     20 C17         3.4562   -6.4260  -11.1541 C.2       1 <0>         0.4064
     21 N4          4.1055   -6.8852  -12.2037 N.2       1 <0>        -0.5159
     22 C18         3.2300   -7.2785  -13.1375 C.2       1 <0>         0.3508
     23 N5          2.0028   -7.0756  -12.6962 N.2       1 <0>        -0.2994
     24 N6          2.1138   -6.5239  -11.4135 N.pl3     1 <0>        -0.3764
     25 C19         1.2071   -6.1119  -10.4805 C.2       1 <0>         0.6925
     26 N7          1.5656   -5.6162   -9.3217 N.2       1 <0>        -0.5616
     27 N8         -0.1335   -6.2216  -10.7671 N.pl3     1 <0>        -0.8018
     28 C20         3.5823   -7.8497  -14.4543 C.2       1 <0>         0.0420
     29 C21         2.7035   -8.2475  -15.4122 C.2       1 <0>        -0.1369
     30 C22         3.4705   -8.7234  -16.4942 C.2       1 <0>        -0.2199
     31 C23         4.7660   -8.5939  -16.1468 C.2       1 <0>        -0.0040
     32 O1          4.8299   -8.0611  -14.9160 O.3       1 <0>        -0.1521
     33 N9         -1.3272   -0.6244    0.0804 N.3       1 <0>        -0.5131
     34 C24        -2.1257   -0.0248    1.1594 C.3       1 <0>         0.0124
     35 C25        -3.5200   -0.6571    1.1670 C.3       1 <0>         0.0646
     36 O2         -3.3943   -2.0745    1.3100 O.3       1 <0>        -0.3866
     37 C26        -2.6231   -2.6914    0.2755 C.3       1 <0>         0.0667
     38 C27        -1.2197   -2.0797    0.2589 C.3       1 <0>         0.0231
     39 H1          0.8367    1.9740   -0.1752 H         1 <0>         0.0647
     40 H2         -0.7158    1.7527   -1.0173 H         1 <0>         0.0705
     41 H3         -0.6780    1.8957    0.7565 H         1 <0>         0.0678
     42 H4          0.5682   -0.2431    0.9023 H         1 <0>         0.0600
     43 H5          2.6685   -0.1724   -0.3476 H         1 <0>         0.1362
     44 H6          3.8843   -1.0300   -2.3083 H         1 <0>         0.1404
     45 H7          3.7636   -2.0224   -4.5985 H         1 <0>         0.1316
     46 H8         -0.0423   -2.7593   -6.3535 H         1 <0>         0.1313
     47 H9         -1.1842   -1.8966   -4.3847 H         1 <0>         0.1373
     48 H10         1.9737   -2.7883   -7.6822 H         1 <0>         0.0828
     49 H11         3.5649   -2.4793   -6.9468 H         1 <0>         0.0856
     50 H12         3.4538   -4.6680   -5.7867 H         1 <0>         0.1034
     51 H13         1.8626   -4.9770   -6.5221 H         1 <0>         0.1024
     52 H14         6.0684   -5.8104   -9.6606 H         1 <0>         0.2025
     53 H15        -0.4191   -6.5863  -11.6194 H         1 <0>         0.4265
     54 H16        -0.7936   -5.9342  -10.1170 H         1 <0>         0.4306
     55 H17         1.6258   -8.2070  -15.3549 H         1 <0>         0.1600
     56 H18         3.0917   -9.1176  -17.4256 H         1 <0>         0.1595
     57 H19         5.6125   -8.8691  -16.7585 H         1 <0>         0.2142
     58 H20        -1.6382   -0.2068    2.1172 H         1 <0>         0.0421
     59 H21        -2.2138    1.0489    0.9934 H         1 <0>         0.0921
     60 H22        -4.0966   -0.2568    2.0009 H         1 <0>         0.0979
     61 H23        -4.0280   -0.4294    0.2298 H         1 <0>         0.0608
     62 H24        -2.5511   -3.7624    0.4648 H         1 <0>         0.0954
     63 H25        -3.1051   -2.5229   -0.6875 H         1 <0>         0.0619
     64 H26        -0.6466   -2.5061   -0.5644 H         1 <0>         0.0861
     65 H27        -0.7178   -2.2946    1.2023 H         1 <0>         0.0373
@<TRIPOS>BOND
     1    1    2 1
     2    1   39 1
     3    1   40 1
     4    1   41 1
     5    2    3 1
     6    2   33 1
     7    2   42 1
     8    3   12 ar
     9    3    4 ar
    10    4    5 ar
    11    4   43 1
    12    5    6 ar
    13    5   44 1
    14    6   11 ar
    15    6    7 ar
    16    7    8 ar
    17    7   45 1
    18    8    9 ar
    19    8   13 1
    20    9   10 ar
    21    9   46 1
    22   10   11 ar
    23   10   47 1
    24   11   12 ar
    25   13   14 1
    26   13   48 1
    27   13   49 1
    28   14   15 1
    29   14   50 1
    30   14   51 1
    31   15   19 1
    32   15   16 1
    33   16   26 1
    34   16   17 2
    35   17   18 1
    36   17   20 1
    37   18   19 2
    38   18   52 1
    39   20   24 1
    40   20   21 2
    41   21   22 1
    42   22   23 2
    43   22   28 1
    44   23   24 1
    45   24   25 1
    46   25   26 2
    47   25   27 1
    48   27   53 1
    49   27   54 1
    50   28   32 1
    51   28   29 2
    52   29   30 1
    53   29   55 1
    54   30   31 2
    55   30   56 1
    56   31   32 1
    57   31   57 1
    58   33   38 1
    59   33   34 1
    60   34   35 1
    61   34   58 1
    62   34   59 1
    63   35   36 1
    64   35   60 1
    65   35   61 1
    66   36   37 1
    67   37   38 1
    68   37   62 1
    69   37   63 1
    70   38   64 1
    71   38   65 1
@<TRIPOS>MOLECULE
CHEMBL264431
   39    42     0     0     0
SMALL
USER_CHARGES

@<TRIPOS>ATOM
      1 C1         -0.0167    1.3781    0.0096 C.ar      1 <0>        -0.1062
      2 C2          1.1709    2.0855    0.0021 C.ar      1 <0>        -0.1212
      3 C3          2.3773    1.4107   -0.0130 C.ar      1 <0>        -0.0970
      4 C4          2.3960    0.0285   -0.0201 C.ar      1 <0>        -0.1178
      5 C5          1.2084   -0.6789   -0.0117 C.ar      1 <0>        -0.0971
      6 C6          0.0021   -0.0041    0.0020 C.ar      1 <0>        -0.1212
      7 C7          3.7112   -0.7071   -0.0376 C.3       1 <0>         0.1764
      8 N1          4.1518   -0.9524    1.3379 N.am      1 <0>        -0.7205
      9 C8          5.3108   -1.6005    1.5688 C.2       1 <0>         0.7082
     10 O1          5.9902   -1.9813    0.6361 O.2       1 <0>        -0.5089
     11 N2          5.7161   -1.8261    2.8342 N.am      1 <0>        -0.4702
     12 C9          5.0538   -1.4616    3.9776 C.2       1 <0>         0.2528
     13 N3          5.7319   -1.8385    5.0209 N.2       1 <0>        -0.4203
     14 C10         6.8660   -2.4654    4.6255 C.ar      1 <0>        -0.0990
     15 C11         6.8712   -2.4719    3.2201 C.ar      1 <0>         0.3674
     16 N4          7.8846   -3.0386    2.5785 N.ar      1 <0>        -0.5507
     17 C12         8.8821   -3.5963    3.2482 C.ar      1 <0>         0.6017
     18 N5          8.9216   -3.6182    4.5722 N.ar      1 <0>        -0.5481
     19 C13         7.9490   -3.0658    5.2988 C.ar      1 <0>         0.3791
     20 C14         7.9985   -3.0951    6.7706 C.2       1 <0>        -0.1444
     21 C15         8.4996   -4.0668    7.5998 C.2       1 <0>        -0.0946
     22 C16         8.4363   -3.8721    8.9595 C.2       1 <0>        -0.1693
     23 C17         7.8815   -2.7276    9.4402 C.2       1 <0>        -0.1665
     24 S1          7.4291   -1.8720    7.9401 S.3       1 <0>         0.1318
     25 N6          9.9205   -4.1776    2.5390 N.pl3     1 <0>        -0.8087
     26 H1         -0.9591    1.9053    0.0259 H         1 <0>         0.1254
     27 H2          1.1563    3.1654    0.0076 H         1 <0>         0.1263
     28 H3          3.3051    1.9634   -0.0196 H         1 <0>         0.1255
     29 H4          1.2231   -1.7588   -0.0176 H         1 <0>         0.1255
     30 H5         -0.9258   -0.5567    0.0082 H         1 <0>         0.1263
     31 H6          3.5884   -1.6586   -0.5549 H         1 <0>         0.0843
     32 H7          4.4573   -0.1052   -0.5563 H         1 <0>         0.0844
     33 H8          3.6095   -0.6484    2.0824 H         1 <0>         0.4037
     34 H9          4.1094   -0.9386    4.0074 H         1 <0>         0.2312
     35 H10         8.9350   -4.9673    7.1923 H         1 <0>         0.1407
     36 H11         8.8222   -4.6192    9.6373 H         1 <0>         0.1397
     37 H12         7.7513   -2.4150   10.4657 H         1 <0>         0.1913
     38 H13         9.9085   -4.1715    1.5691 H         1 <0>         0.4198
     39 H14        10.6595   -4.5908    3.0123 H         1 <0>         0.4201
@<TRIPOS>BOND
     1    1    6 ar
     2    1    2 ar
     3    1   26 1
     4    2    3 ar
     5    2   27 1
     6    3    4 ar
     7    3   28 1
     8    4    5 ar
     9    4    7 1
    10    5    6 ar
    11    5   29 1
    12    6   30 1
    13    7    8 1
    14    7   31 1
    15    7   32 1
    16    8    9 am
    17    8   33 1
    18    9   10 2
    19    9   11 am
    20   11   15 1
    21   11   12 1
    22   12   13 2
    23   12   34 1
    24   13   14 1
    25   14   19 ar
    26   14   15 ar
    27   15   16 ar
    28   16   17 ar
    29   17   18 ar
    30   17   25 1
    31   18   19 ar
    32   19   20 1
    33   20   24 1
    34   20   21 2
    35   21   22 1
    36   21   35 1
    37   22   23 2
    38   22   36 1
    39   23   24 1
    40   23   37 1
    41   25   38 1
    42   25   39 1
@<TRIPOS>MOLECULE
CHEMBL175564
   52    56     0     0     0
SMALL
USER_CHARGES

@<TRIPOS>ATOM
      1 C1         -1.7165   -8.4550   -3.6008 C.ar      1 <0>        -0.0655
      2 C2         -2.9623   -7.8827   -3.8097 C.ar      1 <0>        -0.1292
      3 C3         -3.2475   -6.6608   -3.2309 C.ar      1 <0>         0.1135
      4 N1         -2.3513   -6.0404   -2.4884 N.ar      1 <0>        -0.4676
      5 C4         -1.1572   -6.5545   -2.2685 C.ar      1 <0>         0.0470
      6 C5         -0.8008   -7.7735   -2.8142 C.ar      1 <0>        -0.1432
      7 C6         -0.1694   -5.8044   -1.4126 C.3       1 <0>         0.0442
      8 N2          0.5540   -4.8295   -2.2398 N.4       1 <0>        -0.3806
      9 C7          1.3765   -5.5404   -3.2418 C.3       1 <0>        -0.0133
     10 C8          2.6641   -4.6891   -3.3726 C.3       1 <0>        -0.1394
     11 C9          2.8844   -4.2271   -1.9080 C.3       1 <0>        -0.1439
     12 C10         1.4460   -4.0213   -1.3883 C.3       1 <0>         0.0093
     13 H1          1.1731   -2.9684   -1.4598 H         1 <0>         0.1547
     14 C11         1.3453   -4.4909    0.0643 C.3       1 <0>         0.1035
     15 N3          2.1855   -3.6410    0.9117 N.pl3     1 <0>        -0.6666
     16 C12         2.3372   -3.9369    2.2505 C.2       1 <0>         0.6652
     17 N4          3.1018   -3.1506    3.0132 N.pl3     1 <0>        -0.5982
     18 C13         3.2645   -3.4104    4.2978 C.cat     1 <0>         0.7705
     19 N5          2.6427   -4.4944    4.8457 N.pl3     1 <0>        -0.4016
     20 C14         1.8604   -5.2948    4.0548 C.2       1 <0>         0.5322
     21 N6          1.7185   -4.9910    2.7567 N.2       1 <0>        -0.5001
     22 N7          1.3801   -6.2620    4.8188 N.2       1 <0>        -0.4516
     23 C15         1.8269   -6.1097    6.0719 C.2       1 <0>         0.4192
     24 N8          2.6011   -5.0428    6.1325 N.2       1 <0>        -0.2812
     25 C16         1.5035   -6.9969    7.2086 C.2       1 <0>        -0.0164
     26 C17         0.7124   -8.1014    7.1586 C.2       1 <0>        -0.0823
     27 C18         0.6805   -8.6371    8.4613 C.2       1 <0>        -0.2229
     28 C19         1.4459   -7.8414    9.2342 C.2       1 <0>         0.0363
     29 O1          1.9460   -6.8551    8.4729 O.3       1 <0>        -0.1574
     30 N9          4.0509   -2.5992    5.0733 N.pl3     1 <0>        -0.7352
     31 H2         -1.4673   -9.4111   -4.0369 H         1 <0>         0.1519
     32 H3         -3.7001   -8.3855   -4.4173 H         1 <0>         0.1540
     33 H4         -4.2154   -6.2084   -3.3887 H         1 <0>         0.1740
     34 H5          0.1786   -8.1896   -2.6301 H         1 <0>         0.1424
     35 H6         -0.7010   -5.2823   -0.6170 H         1 <0>         0.1503
     36 H7          0.5398   -6.5072   -0.9753 H         1 <0>         0.1474
     37 H8          1.6189   -6.5436   -2.8910 H         1 <0>         0.1363
     38 H9          0.8540   -5.5875   -4.1972 H         1 <0>         0.1399
     39 H10         3.4999   -5.2962   -3.7204 H         1 <0>         0.1245
     40 H11         2.5027   -3.8357   -4.0311 H         1 <0>         0.1050
     41 H12         3.3951   -4.9995   -1.3330 H         1 <0>         0.1051
     42 H13         3.4424   -3.2912   -1.8790 H         1 <0>         0.1183
     43 H14         0.3093   -4.4243    0.3966 H         1 <0>         0.1175
     44 H15         1.6843   -5.5243    0.1365 H         1 <0>         0.1193
     45 H16         2.6350   -2.8702    0.5313 H         1 <0>         0.4342
     46 H17         0.2059   -8.4925    6.2886 H         1 <0>         0.1698
     47 H18         0.1440   -9.5185    8.7803 H         1 <0>         0.1710
     48 H19         1.6300   -7.9773   10.2896 H         1 <0>         0.2257
     49 H20         4.4911   -1.8299    4.6791 H         1 <0>         0.4505
     50 H21         4.1673   -2.7942    6.0163 H         1 <0>         0.4639
     51 H22        -0.1046   -4.2268   -2.7099 H         1 <0>         0.4384
     52 H23         3.5422   -2.3812    2.6194 H         1 <0>         0.4615
@<TRIPOS>BOND
     1    1    6 ar
     2    1    2 ar
     3    1   31 1
     4    2    3 ar
     5    2   32 1
     6    3    4 ar
     7    3   33 1
     8    4    5 ar
     9    5    6 ar
    10    5    7 1
    11    6   34 1
    12    7    8 1
    13    7   35 1
    14    7   36 1
    15    8   12 1
    16    8    9 1
    17    8   51 1
    18    9   10 1
    19    9   37 1
    20    9   38 1
    21   10   11 1
    22   10   39 1
    23   10   40 1
    24   11   12 1
    25   11   41 1
    26   11   42 1
    27   12   13 1
    28   12   14 1
    29   14   15 1
    30   14   43 1
    31   14   44 1
    32   15   16 1
    33   15   45 1
    34   16   21 2
    35   16   17 1
    36   17   18 2
    37   17   52 1
    38   18   19 1
    39   18   30 1
    40   19   24 1
    41   19   20 1
    42   20   21 1
    43   20   22 2
    44   22   23 1
    45   23   24 2
    46   23   25 1
    47   25   29 1
    48   25   26 2
    49   26   27 1
    50   26   46 1
    51   27   28 2
    52   27   47 1
    53   28   29 1
    54   28   48 1
    55   30   49 1
    56   30   50 1
@<TRIPOS>MOLECULE
CHEMBL1095172
   53    57     0     0     0
SMALL
USER_CHARGES

@<TRIPOS>ATOM
      1 C1         -0.0167    1.3793    0.0096 C.ar      1 <0>        -0.0940
      2 C2          1.1685    2.0928    0.0021 C.ar      1 <0>        -0.1349
      3 C3          2.3774    1.4278   -0.0129 C.ar      1 <0>        -0.0670
      4 C4          2.4029    0.0333   -0.0206 C.ar      1 <0>        -0.0794
      5 C5          1.2046   -0.6805   -0.0130 C.ar      1 <0>        -0.0585
      6 C6          0.0021   -0.0041    0.0020 C.ar      1 <0>        -0.1275
      7 C7          3.6972   -0.6867   -0.0373 C.ar      1 <0>         0.3371
      8 C8          3.8485   -1.9052    0.6418 C.ar      1 <0>        -0.3403
      9 C9          5.0990   -2.5520    0.5965 C.ar      1 <0>         0.3024
     10 N1          6.0850   -1.9873   -0.0846 N.ar      1 <0>        -0.5622
     11 C10         5.9021   -0.8317   -0.7150 C.ar      1 <0>         0.5997
     12 N2          4.7422   -0.1939   -0.7024 N.ar      1 <0>        -0.5697
     13 N3          6.9569   -0.2801   -1.4120 N.pl3     1 <0>        -0.8062
     14 C11         5.0073   -3.8086    1.3828 C.ar      1 <0>         0.0143
     15 C12         5.9358   -4.7988    1.6558 C.ar      1 <0>        -0.1433
     16 C13         5.5750   -5.8959    2.4403 C.ar      1 <0>         0.2466
     17 C14         4.2862   -5.9985    2.9488 C.ar      1 <0>        -0.1932
     18 C15         3.3534   -5.0149    2.6806 C.ar      1 <0>         0.0057
     19 C16         3.7034   -3.9174    1.9004 C.ar      1 <0>        -0.2126
     20 C17         2.9375   -2.7308    1.4534 C.2       1 <0>         0.4682
     21 O1          1.7751   -2.4843    1.7089 O.2       1 <0>        -0.4245
     22 N4          6.5081   -6.8890    2.7129 N.pl3     1 <0>        -0.7346
     23 C18         6.1322   -8.0414    3.5358 C.3       1 <0>         0.1224
     24 C19         7.3334   -8.9777    3.6812 C.3       1 <0>         0.0439
     25 N5          6.9565  -10.1332    4.5063 N.3       1 <0>        -0.5333
     26 C20         6.6719   -9.7228    5.8890 C.3       1 <0>         0.0114
     27 C21         6.2266  -10.9447    6.6969 C.3       1 <0>         0.0625
     28 O2          7.2409  -11.9506    6.6285 O.3       1 <0>        -0.3844
     29 C22         7.5429  -12.3742    5.2964 C.3       1 <0>         0.0627
     30 C23         8.0015  -11.1668    4.4743 C.3       1 <0>         0.0182
     31 H1         -0.9604    1.9042    0.0260 H         1 <0>         0.1259
     32 H2          1.1475    3.1726    0.0077 H         1 <0>         0.1274
     33 H3          3.3020    1.9859   -0.0191 H         1 <0>         0.1286
     34 H4          1.2180   -1.7604   -0.0193 H         1 <0>         0.1362
     35 H5         -0.9264   -0.5557    0.0082 H         1 <0>         0.1286
     36 H6          7.8133   -0.7350   -1.4359 H         1 <0>         0.4188
     37 H7          6.8423    0.5627   -1.8783 H         1 <0>         0.4202
     38 H8          6.9385   -4.7227    1.2620 H         1 <0>         0.1365
     39 H9          4.0125   -6.8494    3.5551 H         1 <0>         0.1364
     40 H10         2.3523   -5.0978    3.0772 H         1 <0>         0.1392
     41 H11         7.4083   -6.8192    2.3584 H         1 <0>         0.4040
     42 H12         5.8184   -7.6972    4.5212 H         1 <0>         0.0664
     43 H13         5.3106   -8.5758    3.0588 H         1 <0>         0.0770
     44 H14         7.6473   -9.3219    2.6958 H         1 <0>         0.0849
     45 H15         8.1551   -8.4433    4.1581 H         1 <0>         0.0441
     46 H16         7.5716   -9.2994    6.3355 H         1 <0>         0.0461
     47 H17         5.8778   -8.9762    5.8909 H         1 <0>         0.0900
     48 H18         6.0694  -10.6563    7.7362 H         1 <0>         0.1004
     49 H19         5.2974  -11.3361    6.2826 H         1 <0>         0.0621
     50 H20         8.3377  -13.1196    5.3228 H         1 <0>         0.1007
     51 H21         6.6520  -12.8071    4.8413 H         1 <0>         0.0620
     52 H22         8.1780  -11.4741    3.4435 H         1 <0>         0.0890
     53 H23         8.9225  -10.7665    4.8982 H         1 <0>         0.0458
@<TRIPOS>BOND
     1    1    6 ar
     2    1    2 ar
     3    1   31 1
     4    2    3 ar
     5    2   32 1
     6    3    4 ar
     7    3   33 1
     8    4    5 ar
     9    4    7 1
    10    5    6 ar
    11    5   34 1
    12    6   35 1
    13    7   12 ar
    14    7    8 ar
    15    8   20 1
    16    8    9 ar
    17    9   10 ar
    18    9   14 1
    19   10   11 ar
    20   11   12 ar
    21   11   13 1
    22   13   36 1
    23   13   37 1
    24   14   19 ar
    25   14   15 ar
    26   15   16 ar
    27   15   38 1
    28   16   17 ar
    29   16   22 1
    30   17   18 ar
    31   17   39 1
    32   18   19 ar
    33   18   40 1
    34   19   20 1
    35   20   21 2
    36   22   23 1
    37   22   41 1
    38   23   24 1
    39   23   42 1
    40   23   43 1
    41   24   25 1
    42   24   44 1
    43   24   45 1
    44   25   30 1
    45   25   26 1
    46   26   27 1
    47   26   46 1
    48   26   47 1
    49   27   28 1
    50   27   48 1
    51   27   49 1
    52   28   29 1
    53   29   30 1
    54   29   50 1
    55   29   51 1
    56   30   52 1
    57   30   53 1
@<TRIPOS>MOLECULE
CHEMBL1087079
   39    42     0     0     0
SMALL
USER_CHARGES

@<TRIPOS>ATOM
      1 C1          0.0180   -1.1779   -0.0044 C.1       1 <0>        -0.1453
      2 C2          0.0021   -0.0041    0.0020 C.1       1 <0>        -0.2102
      3 C3         -0.0179    1.4678    0.0101 C.3       1 <0>         0.1803
      4 O1          1.3227    1.9624   -0.0000 O.3       1 <0>        -0.2847
      5 C4          1.4820    3.3075    0.0057 C.ar      1 <0>         0.4244
      6 C5          2.7847    3.8770   -0.0096 C.ar      1 <0>        -0.2049
      7 C6          4.0803    3.1965   -0.0287 C.2       1 <0>        -0.0716
      8 C7          5.1811    3.9759   -0.0416 C.2       1 <0>        -0.1474
      9 S1          4.5707    5.6403   -0.0298 S.3       1 <0>         0.1281
     10 C8          2.8326    5.2874   -0.0043 C.ar      1 <0>         0.1446
     11 N1          1.7355    6.0149    0.0166 N.ar      1 <0>        -0.4913
     12 C9          0.5454    5.4281    0.0323 C.ar      1 <0>         0.4241
     13 N2          0.4299    4.1035    0.0200 N.ar      1 <0>        -0.5790
     14 C10        -0.6781    6.2649    0.0569 C.ar      1 <0>        -0.0527
     15 C11        -0.5751    7.6552    0.0577 C.ar      1 <0>        -0.0650
     16 C12        -1.7175    8.4290    0.0803 C.ar      1 <0>        -0.1301
     17 C13        -2.9631    7.8277    0.1025 C.ar      1 <0>        -0.0928
     18 C14        -3.0715    6.4486    0.1023 C.ar      1 <0>        -0.1312
     19 C15        -1.9362    5.6646    0.0736 C.ar      1 <0>        -0.0664
     20 C16         6.6107    3.5269   -0.0607 C.3       1 <0>        -0.0404
     21 C17         6.6561    2.0383    0.3125 C.3       1 <0>        -0.1155
     22 C18         5.6030    1.2933   -0.5130 C.3       1 <0>        -0.1224
     23 C19         4.2021    1.6751   -0.0335 C.3       1 <0>        -0.0586
     24 H1          0.0322   -2.2278   -0.0102 H         1 <0>         0.2266
     25 H2         -0.5451    1.8289   -0.8729 H         1 <0>         0.0969
     26 H3         -0.5281    1.8193    0.9069 H         1 <0>         0.0969
     27 H4          0.3969    8.1257    0.0411 H         1 <0>         0.1382
     28 H5         -1.6389    9.5062    0.0809 H         1 <0>         0.1305
     29 H6         -3.8544    8.4373    0.1205 H         1 <0>         0.1274
     30 H7         -4.0466    5.9847    0.1205 H         1 <0>         0.1297
     31 H8         -2.0221    4.5880    0.0690 H         1 <0>         0.1354
     32 H9          7.0265    3.6680   -1.0584 H         1 <0>         0.0891
     33 H10         7.1865    4.1044    0.6625 H         1 <0>         0.0870
     34 H11         7.6450    1.6361    0.0924 H         1 <0>         0.0776
     35 H12         6.4390    1.9207    1.3742 H         1 <0>         0.0700
     36 H13         5.7116    1.5602   -1.5643 H         1 <0>         0.0671
     37 H14         5.7453    0.2189   -0.3968 H         1 <0>         0.0725
     38 H15         4.0440    1.2929    0.9750 H         1 <0>         0.0797
     39 H16         3.4578    1.2512   -0.7076 H         1 <0>         0.0831
@<TRIPOS>BOND
     1    1    2 3
     2    1   24 1
     3    2    3 1
     4    3    4 1
     5    3   25 1
     6    3   26 1
     7    4    5 1
     8    5   13 ar
     9    5    6 ar
    10    6   10 ar
    11    6    7 1
    12    7   23 1
    13    7    8 2
    14    8    9 1
    15    8   20 1
    16    9   10 1
    17   10   11 ar
    18   11   12 ar
    19   12   13 ar
    20   12   14 1
    21   14   19 ar
    22   14   15 ar
    23   15   16 ar
    24   15   27 1
    25   16   17 ar
    26   16   28 1
    27   17   18 ar
    28   17   29 1
    29   18   19 ar
    30   18   30 1
    31   19   31 1
    32   20   21 1
    33   20   32 1
    34   20   33 1
    35   21   22 1
    36   21   34 1
    37   21   35 1
    38   22   23 1
    39   22   36 1
    40   22   37 1
    41   23   38 1
    42   23   39 1
@<TRIPOS>MOLECULE
CHEMBL144979
   46    50     0     0     0
SMALL
USER_CHARGES

@<TRIPOS>ATOM
      1 C1          1.0281   -0.5784   -0.8346 C.3       1 <0>         0.0259
      2 O1          0.0003   -0.0013   -0.0267 O.3       1 <0>        -0.3170
      3 C2         -1.2022   -0.6357   -0.0114 C.ar      1 <0>         0.1172
      4 C3         -1.3852   -1.7927   -0.7545 C.ar      1 <0>        -0.1867
      5 C4         -2.6063   -2.4375   -0.7394 C.ar      1 <0>        -0.0761
      6 C5         -3.6509   -1.9277    0.0199 C.ar      1 <0>         0.1200
      7 C6         -3.4670   -0.7697    0.7635 C.ar      1 <0>        -0.1000
      8 C7         -2.2438   -0.1290    0.7519 C.ar      1 <0>        -0.1314
      9 N1         -4.8903   -2.5814    0.0354 N.am      1 <0>        -0.6723
     10 C8         -4.9454   -3.9241   -0.0675 C.2       1 <0>         0.7026
     11 O2         -3.9191   -4.5756   -0.0764 O.2       1 <0>        -0.4921
     12 N2         -6.1383   -4.5444   -0.1606 N.am      1 <0>        -0.6493
     13 C9         -6.1948   -5.9200   -0.2660 C.2       1 <0>         0.6386
     14 N3         -5.0750   -6.5931   -0.2675 N.2       1 <0>        -0.4603
     15 C10        -5.0492   -7.9441   -0.3674 C.ar      1 <0>         0.1658
     16 C11        -3.8446   -8.6526   -0.3674 C.ar      1 <0>        -0.0788
     17 C12        -3.8561  -10.0148   -0.4694 C.ar      1 <0>        -0.0639
     18 C13        -5.0529  -10.7135   -0.5739 C.ar      1 <0>        -0.0462
     19 C14        -6.2574  -10.0423   -0.5768 C.ar      1 <0>        -0.0387
     20 C15        -6.2676   -8.6530   -0.4737 C.ar      1 <0>        -0.0940
     21 C16        -7.5154   -7.8807   -0.4708 C.2       1 <0>         0.3588
     22 N4         -7.4201   -6.5189   -0.3587 N.pl3     1 <0>        -0.3608
     23 N5         -8.7347   -6.0339   -0.3728 N.2       1 <0>        -0.2904
     24 C17        -9.5314   -7.0804   -0.4820 C.2       1 <0>         0.3483
     25 N6         -8.7900   -8.1933   -0.5500 N.2       1 <0>        -0.4979
     26 C18       -11.0076   -7.0307   -0.5350 C.2       1 <0>         0.0386
     27 C19       -11.7702   -5.9064   -0.4859 C.2       1 <0>        -0.1336
     28 C20       -13.1137   -6.3234   -0.5663 C.2       1 <0>        -0.2195
     29 C21       -13.1048   -7.6677   -0.6596 C.2       1 <0>        -0.0010
     30 O3        -11.8307   -8.0912   -0.6463 O.3       1 <0>        -0.1523
     31 Cl1        -5.0312  -12.4446   -0.7025 Cl        1 <0>        -0.0495
     32 H1          1.9328    0.0245   -0.7570 H         1 <0>         0.1014
     33 H2          1.2357   -1.5913   -0.4895 H         1 <0>         0.0570
     34 H3          0.6996   -0.6086   -1.8735 H         1 <0>         0.0563
     35 H4         -0.5727   -2.1890   -1.3454 H         1 <0>         0.1332
     36 H5         -2.7487   -3.3381   -1.3183 H         1 <0>         0.1399
     37 H6         -4.2793   -0.3724    1.3541 H         1 <0>         0.1346
     38 H7         -2.0993    0.7693    1.3338 H         1 <0>         0.1373
     39 H8         -5.7086   -2.0674    0.1201 H         1 <0>         0.4102
     40 H9         -6.9572   -4.0245   -0.1535 H         1 <0>         0.4269
     41 H10        -2.9062   -8.1240   -0.2872 H         1 <0>         0.1579
     42 H11        -2.9218  -10.5565   -0.4691 H         1 <0>         0.1509
     43 H12        -7.1852  -10.5891   -0.6582 H         1 <0>         0.1544
     44 H13       -11.4150   -4.8900   -0.4012 H         1 <0>         0.1606
     45 H14       -13.9856   -5.6863   -0.5549 H         1 <0>         0.1606
     46 H15       -13.9775   -8.2993   -0.7366 H         1 <0>         0.2152
@<TRIPOS>BOND
     1    1    2 1
     2    1   32 1
     3    1   33 1
     4    1   34 1
     5    2    3 1
     6    3    8 ar
     7    3    4 ar
     8    4    5 ar
     9    4   35 1
    10    5    6 ar
    11    5   36 1
    12    6    7 ar
    13    6    9 1
    14    7    8 ar
    15    7   37 1
    16    8   38 1
    17    9   10 am
    18    9   39 1
    19   10   11 2
    20   10   12 am
    21   12   13 1
    22   12   40 1
    23   13   22 1
    24   13   14 2
    25   14   15 1
    26   15   20 ar
    27   15   16 ar
    28   16   17 ar
    29   16   41 1
    30   17   18 ar
    31   17   42 1
    32   18   19 ar
    33   18   31 1
    34   19   20 ar
    35   19   43 1
    36   20   21 1
    37   21   25 2
    38   21   22 1
    39   22   23 1
    40   23   24 2
    41   24   25 1
    42   24   26 1
    43   26   30 1
    44   26   27 2
    45   27   28 1
    46   27   44 1
    47   28   29 2
    48   28   45 1
    49   29   30 1
    50   29   46 1
@<TRIPOS>MOLECULE
CHEMBL604440
   56    59     0     0     0
SMALL
USER_CHARGES

@<TRIPOS>ATOM
      1 C1         -0.0187    1.5258    0.0104 C.3       1 <0>        -0.1670
      2 C2          0.0021   -0.0041    0.0020 C.3       1 <0>         0.1127
      3 N1         -1.3723   -0.5112    0.0124 N.am      1 <0>        -0.7283
      4 C3         -1.6006   -1.8394    0.0075 C.2       1 <0>         0.4959
      5 O1         -0.6682   -2.6149   -0.0056 O.2       1 <0>        -0.5067
      6 C4         -3.0144   -2.3611    0.0182 C.3       1 <0>         0.0429
      7 H1         -3.5693   -1.9423   -0.8214 H         1 <0>         0.1289
      8 C5         -3.7041   -1.9776    1.3451 C.3       1 <0>         0.0517
      9 H2         -2.9665   -1.7866    2.1246 H         1 <0>         0.0963
     10 C6         -4.5311   -3.2521    1.6670 C.3       1 <0>         0.0776
     11 H3         -4.6779   -3.3642    2.7412 H         1 <0>         0.1030
     12 C7         -3.5965   -4.3569    1.1129 C.3       1 <0>         0.3199
     13 O2         -3.0056   -3.7907   -0.0698 O.3       1 <0>        -0.3323
     14 N2         -4.3702   -5.5529    0.7708 N.pl3     1 <0>        -0.4598
     15 C8         -4.8574   -5.8736   -0.4614 C.2       1 <0>         0.2903
     16 N3         -5.4969   -7.0060   -0.4063 N.2       1 <0>        -0.4643
     17 C9         -5.4615   -7.4834    0.8604 C.ar      1 <0>        -0.0959
     18 C10        -4.7327   -6.5595    1.6308 C.ar      1 <0>         0.3107
     19 N4         -4.5454   -6.7990    2.9224 N.ar      1 <0>        -0.5420
     20 C11        -5.0353   -7.8963    3.4830 C.ar      1 <0>         0.4970
     21 N5         -5.7270   -8.7977    2.7912 N.ar      1 <0>        -0.5706
     22 C12        -5.9674   -8.6313    1.4969 C.ar      1 <0>         0.5143
     23 N6         -6.6869   -9.5751    0.7848 N.pl3     1 <0>        -0.8140
     24 C13        -4.8118   -8.1187    4.8798 C.1       1 <0>        -0.1058
     25 C14        -4.6286   -8.3010    6.0250 C.1       1 <0>        -0.0859
     26 C15        -4.3989   -8.5296    7.4609 C.3       1 <0>         0.1652
     27 N7         -5.0262   -9.7960    7.8617 N.3       1 <0>        -0.5356
     28 C16        -6.4903   -9.7150    7.7570 C.3       1 <0>         0.0149
     29 C17        -7.0987  -11.0707    8.1255 C.3       1 <0>         0.0639
     30 O3         -6.6693  -11.4391    9.4390 O.3       1 <0>        -0.3853
     31 C18        -5.2485  -11.5280    9.5765 C.3       1 <0>         0.0629
     32 C19        -4.6215  -10.1769    9.2227 C.3       1 <0>         0.0175
     33 O4         -5.7828   -3.2417    0.9776 O.3       1 <0>        -0.5331
     34 O5         -4.5567   -0.8449    1.1663 O.3       1 <0>        -0.5370
     35 H4          1.0039    1.9031    0.0027 H         1 <0>         0.0784
     36 H5         -0.5459    1.8868   -0.8726 H         1 <0>         0.0639
     37 H6         -0.5289    1.8773    0.9072 H         1 <0>         0.0631
     38 H7          0.5123   -0.3556   -0.8948 H         1 <0>         0.0719
     39 H8          0.5293   -0.3651    0.8851 H         1 <0>         0.0712
     40 H9         -2.1181    0.1091    0.0229 H         1 <0>         0.3971
     41 H10        -2.8246   -4.6006    1.8429 H         1 <0>         0.1316
     42 H11        -4.7318   -5.2758   -1.3520 H         1 <0>         0.2227
     43 H12        -6.8470   -9.4488   -0.1635 H         1 <0>         0.4213
     44 H13        -7.0310  -10.3630    1.2340 H         1 <0>         0.4119
     45 H14        -3.3272   -8.5777    7.6543 H         1 <0>         0.1097
     46 H15        -4.8350   -7.7109    8.0335 H         1 <0>         0.0699
     47 H16        -6.8624   -8.9514    8.4401 H         1 <0>         0.0468
     48 H17        -6.7685   -9.4569    6.7352 H         1 <0>         0.0904
     49 H18        -8.1861  -10.9995    8.1047 H         1 <0>         0.1000
     50 H19        -6.7689  -11.8241    7.4101 H         1 <0>         0.0622
     51 H20        -4.9979  -11.7874   10.6051 H         1 <0>         0.1009
     52 H21        -4.8650  -12.2947    8.9033 H         1 <0>         0.0619
     53 H22        -3.5354  -10.2559    9.2708 H         1 <0>         0.0914
     54 H23        -4.9636   -9.4207    9.9292 H         1 <0>         0.0482
     55 H24        -6.3572   -2.5014    1.2166 H         1 <0>         0.3955
     56 H25        -4.0940   -0.0456    0.8797 H         1 <0>         0.3879
@<TRIPOS>BOND
     1    1    2 1
     2    1   35 1
     3    1   36 1
     4    1   37 1
     5    2    3 1
     6    2   38 1
     7    2   39 1
     8    3    4 am
     9    3   40 1
    10    4    5 2
    11    4    6 1
    12    6    7 1
    13    6   13 1
    14    6    8 1
    15    8    9 1
    16    8   10 1
    17    8   34 1
    18   10   11 1
    19   10   12 1
    20   10   33 1
    21   12   13 1
    22   12   14 1
    23   12   41 1
    24   14   18 1
    25   14   15 1
    26   15   16 2
    27   15   42 1
    28   16   17 1
    29   17   22 ar
    30   17   18 ar
    31   18   19 ar
    32   19   20 ar
    33   20   21 ar
    34   20   24 1
    35   21   22 ar
    36   22   23 1
    37   23   43 1
    38   23   44 1
    39   24   25 3
    40   25   26 1
    41   26   27 1
    42   26   45 1
    43   26   46 1
    44   27   32 1
    45   27   28 1
    46   28   29 1
    47   28   47 1
    48   28   48 1
    49   29   30 1
    50   29   49 1
    51   29   50 1
    52   30   31 1
    53   31   32 1
    54   31   51 1
    55   31   52 1
    56   32   53 1
    57   32   54 1
    58   33   55 1
    59   34   56 1
@<TRIPOS>MOLECULE
CHEMBL353323
   54    58     0     0     0
SMALL
USER_CHARGES

@<TRIPOS>ATOM
      1 C1         -8.5212   -6.8229   -4.5455 C.3       1 <0>        -0.1032
      2 C2         -7.6718   -5.9875   -3.6225 C.2       1 <0>         0.1124
      3 C3         -6.5382   -6.3850   -3.0133 C.2       1 <0>        -0.2936
      4 C4         -6.0559   -5.3116   -2.2432 C.2       1 <0>         0.0492
      5 N1         -6.8752   -4.3089   -2.3893 N.2       1 <0>        -0.2903
      6 O1         -7.9090   -4.7154   -3.2679 O.3       1 <0>        -0.0467
      7 C5         -4.8094   -5.3197   -1.3963 C.3       1 <0>         0.0664
      8 N2         -3.6895   -4.7644   -2.1680 N.4       1 <0>        -0.3816
      9 C6         -3.4096   -5.6312   -3.3325 C.3       1 <0>        -0.0110
     10 C7         -1.8693   -5.5934   -3.4927 C.3       1 <0>        -0.1373
     11 C8         -1.4011   -5.5661   -2.0139 C.3       1 <0>        -0.1446
     12 C9         -2.4829   -4.7100   -1.3224 C.3       1 <0>         0.0024
     13 H1         -2.1391   -3.6796   -1.2327 H         1 <0>         0.1452
     14 C10        -2.7920   -5.2813    0.0629 C.3       1 <0>         0.1061
     15 N3         -1.6271   -5.1069    0.9340 N.pl3     1 <0>        -0.5753
     16 C11        -1.4131   -3.8328    1.6247 C.3       1 <0>         0.0694
     17 C12        -0.7380   -6.1352    1.1027 C.2       1 <0>         0.6704
     18 N4          0.3463   -5.9570    1.9276 N.pl3     1 <0>        -0.6557
     19 C13         0.9585   -7.0809    2.4818 C.2       1 <0>         0.6267
     20 N5          0.8627   -8.2169    1.6948 N.pl3     1 <0>        -0.4280
     21 C14        -0.0942   -8.3007    0.7044 C.2       1 <0>         0.5011
     22 N6         -0.9454   -7.2792    0.4721 N.2       1 <0>        -0.5468
     23 N7          0.0339   -9.4718    0.1356 N.2       1 <0>        -0.4891
     24 C15         1.0425  -10.1479    0.7152 C.2       1 <0>         0.3408
     25 N8          1.5726   -9.4058    1.6731 N.2       1 <0>        -0.2738
     26 C16         1.4877  -11.5062    0.3407 C.2       1 <0>         0.0312
     27 C17         0.9554  -12.2770   -0.6447 C.2       1 <0>        -0.1245
     28 C18         1.6814  -13.4845   -0.6524 C.2       1 <0>        -0.2202
     29 C19         2.6113  -13.3922    0.3185 C.2       1 <0>        -0.0002
     30 O2          2.4952  -12.1936    0.9125 O.3       1 <0>        -0.1598
     31 N9          1.5658   -7.0637    3.6341 N.2       1 <0>        -0.6652
     32 H2         -9.3715   -6.2339   -4.8892 H         1 <0>         0.0945
     33 H3         -7.9257   -7.1362   -5.4030 H         1 <0>         0.1073
     34 H4         -8.8806   -7.7026   -4.0117 H         1 <0>         0.1084
     35 H5         -6.0796   -7.3589   -3.1007 H         1 <0>         0.1721
     36 H6         -4.9719   -4.7140   -0.5048 H         1 <0>         0.1538
     37 H7         -4.5763   -6.3432   -1.1027 H         1 <0>         0.1631
     38 H8         -3.7459   -6.6495   -3.1372 H         1 <0>         0.1388
     39 H9         -3.8938   -5.2354   -4.2253 H         1 <0>         0.1350
     40 H10        -1.5074   -6.4875   -4.0004 H         1 <0>         0.1217
     41 H11        -1.5535   -4.6926   -4.0189 H         1 <0>         0.0973
     42 H12        -1.3818   -6.5731   -1.5971 H         1 <0>         0.1272
     43 H13        -0.4226   -5.0936   -1.9281 H         1 <0>         0.1063
     44 H14        -3.6467   -4.7566    0.4898 H         1 <0>         0.1126
     45 H15        -3.0241   -6.3426   -0.0253 H         1 <0>         0.1306
     46 H16        -1.9587   -3.8349    2.5683 H         1 <0>         0.0870
     47 H17        -0.3491   -3.6999    1.8205 H         1 <0>         0.0824
     48 H18        -1.7722   -3.0156    0.9991 H         1 <0>         0.0940
     49 H19         0.1343  -12.0147   -1.2954 H         1 <0>         0.1619
     50 H20         1.5225  -14.3252   -1.3115 H         1 <0>         0.1610
     51 H21         3.3332  -14.1540    0.5735 H         1 <0>         0.2154
     52 H22         1.9770   -7.8723    3.9777 H         1 <0>         0.3842
     53 H23         0.6797   -5.0668    2.1205 H         1 <0>         0.4399
     54 H24        -3.9230   -3.8360   -2.4866 H         1 <0>         0.4312
@<TRIPOS>BOND
     1    1    2 1
     2    1   32 1
     3    1   33 1
     4    1   34 1
     5    2    6 1
     6    2    3 2
     7    3    4 1
     8    3   35 1
     9    4    5 2
    10    4    7 1
    11    5    6 1
    12    7    8 1
    13    7   36 1
    14    7   37 1
    15    8   12 1
    16    8    9 1
    17    8   54 1
    18    9   10 1
    19    9   38 1
    20    9   39 1
    21   10   11 1
    22   10   40 1
    23   10   41 1
    24   11   12 1
    25   11   42 1
    26   11   43 1
    27   12   13 1
    28   12   14 1
    29   14   15 1
    30   14   44 1
    31   14   45 1
    32   15   16 1
    33   15   17 1
    34   16   46 1
    35   16   47 1
    36   16   48 1
    37   17   22 2
    38   17   18 1
    39   18   19 1
    40   18   53 1
    41   19   20 1
    42   19   31 2
    43   20   25 1
    44   20   21 1
    45   21   22 1
    46   21   23 2
    47   23   24 1
    48   24   25 2
    49   24   26 1
    50   26   30 1
    51   26   27 2
    52   27   28 1
    53   27   49 1
    54   28   29 2
    55   28   50 1
    56   29   30 1
    57   29   51 1
    58   31   52 1
@<TRIPOS>MOLECULE
CHEMBL603783
   54    57     0     0     0
SMALL
USER_CHARGES

@<TRIPOS>ATOM
      1 C1         -0.0187    1.5258    0.0104 C.3       1 <0>        -0.1670
      2 C2          0.0021   -0.0041    0.0020 C.3       1 <0>         0.1127
      3 N1          0.6878   -0.4765   -1.2033 N.am      1 <0>        -0.7282
      4 C3          0.8268   -1.7986   -1.4250 C.2       1 <0>         0.4960
      5 O1          0.3843   -2.5972   -0.6267 O.2       1 <0>        -0.5068
      6 C4          1.5322   -2.2846   -2.6649 C.3       1 <0>         0.0428
      7 H1          2.5301   -1.8492   -2.7172 H         1 <0>         0.1291
      8 C5          0.7217   -1.8886   -3.9178 C.3       1 <0>         0.0519
      9 H2         -0.3249   -1.7189   -3.6651 H         1 <0>         0.0963
     10 C6          0.8760   -3.1431   -4.8202 C.3       1 <0>         0.0777
     11 H3          0.0208   -3.2552   -5.4867 H         1 <0>         0.1030
     12 C7          0.9061   -4.2690   -3.7562 C.3       1 <0>         0.3198
     13 O2          1.6263   -3.7137   -2.6418 O.3       1 <0>        -0.3322
     14 N2          1.6076   -5.4441   -4.2789 N.pl3     1 <0>        -0.4592
     15 C8          2.9233   -5.7482   -4.0911 C.2       1 <0>         0.2920
     16 N3          3.2128   -6.8643   -4.6950 N.2       1 <0>        -0.4642
     17 C9          2.1055   -7.3469   -5.3071 C.ar      1 <0>        -0.0925
     18 C10         1.0597   -6.4443   -5.0428 C.ar      1 <0>         0.3092
     19 N4         -0.1488   -6.6929   -5.5312 N.ar      1 <0>        -0.5367
     20 C11        -0.3723   -7.7795   -6.2576 C.ar      1 <0>         0.4903
     21 N5          0.5864   -8.6608   -6.5286 N.ar      1 <0>        -0.5693
     22 C12         1.8249   -8.4840   -6.0863 C.ar      1 <0>         0.5138
     23 N6          2.8159   -9.4069   -6.3721 N.pl3     1 <0>        -0.8133
     24 C13        -1.6903   -8.0123   -6.7669 C.1       1 <0>        -0.0821
     25 C14        -2.7708   -8.2031   -7.1844 C.1       1 <0>        -0.1321
     26 C15        -4.1256   -8.4424   -7.7080 C.3       1 <0>         0.2676
     27 C16        -4.1398   -9.7265   -8.4966 C.ar      1 <0>        -0.1192
     28 C17        -3.6663   -9.7453   -9.7952 C.ar      1 <0>        -0.1033
     29 C18        -3.6793  -10.9232  -10.5187 C.ar      1 <0>        -0.1167
     30 C19        -4.1655  -12.0823   -9.9434 C.ar      1 <0>        -0.1136
     31 C20        -4.6382  -12.0637   -8.6445 C.ar      1 <0>        -0.1181
     32 C21        -4.6212  -10.8868   -7.9196 C.ar      1 <0>        -0.1013
     33 O3         -4.5067   -7.3578   -8.5568 O.3       1 <0>        -0.5364
     34 O4          2.0984   -3.0988   -5.5591 O.3       1 <0>        -0.5333
     35 O5          1.2850   -0.7342   -4.5440 O.3       1 <0>        -0.5368
     36 H4          1.0039    1.9031    0.0027 H         1 <0>         0.0640
     37 H5         -0.5459    1.8868   -0.8726 H         1 <0>         0.0631
     38 H6         -0.5289    1.8773    0.9072 H         1 <0>         0.0784
     39 H7          0.5293   -0.3651    0.8851 H         1 <0>         0.0719
     40 H8         -1.0205   -0.3814    0.0098 H         1 <0>         0.0712
     41 H9          1.0417    0.1622   -1.8418 H         1 <0>         0.3971
     42 H10        -0.1080   -4.5346   -3.4576 H         1 <0>         0.1314
     43 H11         3.6225   -5.1506   -3.5251 H         1 <0>         0.2234
     44 H12         3.7152   -9.2733   -6.0341 H         1 <0>         0.4217
     45 H13         2.6110  -10.1874   -6.9104 H         1 <0>         0.4124
     46 H14        -4.8278   -8.5181   -6.8778 H         1 <0>         0.1368
     47 H15        -3.2865   -8.8397  -10.2447 H         1 <0>         0.1214
     48 H16        -3.3100  -10.9377  -11.5335 H         1 <0>         0.1251
     49 H17        -4.1763  -13.0024  -10.5088 H         1 <0>         0.1240
     50 H18        -5.0183  -12.9692   -8.1951 H         1 <0>         0.1259
     51 H19        -4.9870  -10.8730   -6.9035 H         1 <0>         0.1272
     52 H20        -3.9247   -7.2313   -9.3185 H         1 <0>         0.3815
     53 H21         2.1670   -2.3453   -6.1612 H         1 <0>         0.3957
     54 H22         1.2895    0.0542   -3.9840 H         1 <0>         0.3879
@<TRIPOS>BOND
     1    1    2 1
     2    1   36 1
     3    1   37 1
     4    1   38 1
     5    2    3 1
     6    2   39 1
     7    2   40 1
     8    3    4 am
     9    3   41 1
    10    4    5 2
    11    4    6 1
    12    6    7 1
    13    6   13 1
    14    6    8 1
    15    8    9 1
    16    8   10 1
    17    8   35 1
    18   10   11 1
    19   10   12 1
    20   10   34 1
    21   12   13 1
    22   12   14 1
    23   12   42 1
    24   14   18 1
    25   14   15 1
    26   15   16 2
    27   15   43 1
    28   16   17 1
    29   17   22 ar
    30   17   18 ar
    31   18   19 ar
    32   19   20 ar
    33   20   21 ar
    34   20   24 1
    35   21   22 ar
    36   22   23 1
    37   23   44 1
    38   23   45 1
    39   24   25 3
    40   25   26 1
    41   26   27 1
    42   26   33 1
    43   26   46 1
    44   27   32 ar
    45   27   28 ar
    46   28   29 ar
    47   28   47 1
    48   29   30 ar
    49   29   48 1
    50   30   31 ar
    51   30   49 1
    52   31   32 ar
    53   31   50 1
    54   32   51 1
    55   33   52 1
    56   34   53 1
    57   35   54 1
@<TRIPOS>MOLECULE
CHEMBL512812
   37    41     0     0     0
SMALL
USER_CHARGES

@<TRIPOS>ATOM
      1 C1         -0.0162    1.3451    0.0094 C.2       1 <0>        -0.2249
      2 C2          1.3225    1.7763   -0.0010 C.2       1 <0>        -0.1235
      3 C3          2.0959    0.6543   -0.0144 C.2       1 <0>        -0.0073
      4 O1          1.2782   -0.4173   -0.0124 O.3       1 <0>        -0.1487
      5 C4          0.0021   -0.0041    0.0020 C.2       1 <0>         0.0010
      6 C5          3.5677    0.6188   -0.0291 C.ar      1 <0>         0.4083
      7 C6          4.2734   -0.4010    0.6510 C.ar      1 <0>        -0.1549
      8 C7          5.6790   -0.3802    0.5989 C.ar      1 <0>         0.3616
      9 N1          6.2899    0.5856   -0.0804 N.ar      1 <0>        -0.5802
     10 C8          5.5905    1.5202   -0.7032 C.ar      1 <0>         0.6209
     11 N2          4.2647    1.5429   -0.6876 N.ar      1 <0>        -0.5510
     12 N3          6.2669    2.5076   -1.3991 N.pl3     1 <0>        -0.8039
     13 N4          6.0998   -1.4584    1.3276 N.pl3     1 <0>        -0.3799
     14 N5          4.9441   -2.0995    1.7988 N.2       1 <0>         0.0019
     15 N6          3.9043   -1.4608    1.3883 N.2       1 <0>        -0.1691
     16 C9          7.4865   -1.8648    1.5687 C.3       1 <0>         0.1826
     17 C10         7.9940   -1.2001    2.8224 C.ar      1 <0>        -0.1653
     18 C11         8.6092    0.0433    2.7415 C.ar      1 <0>        -0.0422
     19 C12         9.0777    0.6665    3.8630 C.ar      1 <0>        -0.1448
     20 C13         8.9399    0.0530    5.1058 C.ar      1 <0>         0.1407
     21 C14         8.3168   -1.2070    5.1899 C.ar      1 <0>        -0.1872
     22 C15         7.8402   -1.8226    4.0270 C.ar      1 <0>        -0.0023
     23 C16         8.3265   -1.5758    6.6018 C.2       1 <0>         0.0837
     24 N7          8.9033   -0.6118    7.2608 N.2       1 <0>        -0.2482
     25 N8          9.2935    0.4043    6.3824 N.pl3     1 <0>        -0.5089
     26 H1          9.7425    1.2258    6.6361 H         1 <0>         0.4415
     27 H2         -0.8933    1.9750    0.0252 H         1 <0>         0.1582
     28 H3          1.6703    2.7988    0.0008 H         1 <0>         0.1590
     29 H4         -0.8670   -0.6452    0.0072 H         1 <0>         0.2133
     30 H5          7.2366    2.5058   -1.4240 H         1 <0>         0.4203
     31 H6          5.7711    3.2012   -1.8618 H         1 <0>         0.4218
     32 H7          7.5325   -2.9473    1.6872 H         1 <0>         0.1147
     33 H8          8.1052   -1.5653    0.7227 H         1 <0>         0.1119
     34 H9          8.7186    0.5227    1.7799 H         1 <0>         0.1350
     35 H10         9.5541    1.6327    3.7862 H         1 <0>         0.1294
     36 H11         7.3567   -2.7868    4.0822 H         1 <0>         0.1357
     37 H12         7.9267   -2.4856    7.0247 H         1 <0>         0.2008
@<TRIPOS>BOND
     1    1    5 2
     2    1    2 1
     3    1   27 1
     4    2    3 2
     5    2   28 1
     6    3    4 1
     7    3    6 1
     8    4    5 1
     9    5   29 1
    10    6   11 ar
    11    6    7 ar
    12    7   15 1
    13    7    8 ar
    14    8    9 ar
    15    8   13 1
    16    9   10 ar
    17   10   11 ar
    18   10   12 1
    19   12   30 1
    20   12   31 1
    21   13   14 1
    22   13   16 1
    23   14   15 2
    24   16   17 1
    25   16   32 1
    26   16   33 1
    27   17   22 ar
    28   17   18 ar
    29   18   19 ar
    30   18   34 1
    31   19   20 ar
    32   19   35 1
    33   20   25 1
    34   20   21 ar
    35   21   22 ar
    36   21   23 1
    37   22   36 1
    38   23   24 2
    39   23   37 1
    40   24   25 1
    41   25   26 1
@<TRIPOS>MOLECULE
CHEMBL222430
   61    67     0     0     0
SMALL
USER_CHARGES

@<TRIPOS>ATOM
      1 C1         -0.0162    1.3433    0.0094 C.2       1 <0>        -0.2193
      2 C2          1.3252    1.7744   -0.0011 C.2       1 <0>        -0.1215
      3 C3          2.0963    0.6547   -0.0144 C.2       1 <0>         0.0280
      4 O1          1.2798   -0.4167   -0.0124 O.3       1 <0>        -0.1601
      5 C4          0.0021   -0.0041    0.0020 C.2       1 <0>         0.0000
      6 C5          3.5735    0.6192   -0.0292 C.2       1 <0>         0.3442
      7 N1          4.3782    1.6975   -0.0257 N.2       1 <0>        -0.4815
      8 C6          5.6284    1.3133   -0.0438 C.2       1 <0>         0.4991
      9 N2          6.7827    2.0136   -0.0426 N.2       1 <0>        -0.5255
     10 C7          7.9149    1.3544   -0.2245 C.2       1 <0>         0.6716
     11 N3          7.9251    0.0030   -0.4737 N.pl3     1 <0>        -0.6597
     12 C8          6.8335   -0.7612   -0.0614 C.2       1 <0>         0.6287
     13 N4          5.6350   -0.0666   -0.0535 N.pl3     1 <0>        -0.4289
     14 N5          4.3125   -0.4776   -0.0421 N.2       1 <0>        -0.2733
     15 N6          6.9320   -2.0133    0.2840 N.2       1 <0>        -0.6686
     16 N7          9.1029    2.0335   -0.1638 N.pl3     1 <0>        -0.5972
     17 C9         10.3866    1.3423   -0.3661 C.3       1 <0>         0.0878
     18 C10        11.3005    1.6893    0.8113 C.3       1 <0>        -0.0205
     19 N8         11.4311    3.1501    0.9330 N.4       1 <0>        -0.3858
     20 C11        12.3915    3.4256    2.0122 C.3       1 <0>         0.0024
     21 C12        12.6152    4.9311    2.1496 C.3       1 <0>        -0.1137
     22 H1         13.3336    5.1226    2.9467 H         1 <0>         0.1354
     23 C13        11.2787    5.5987    2.4911 C.3       1 <0>        -0.1293
     24 C14        10.2734    5.2712    1.3860 C.3       1 <0>        -0.1441
     25 C15        10.1305    3.7519    1.2449 C.3       1 <0>         0.0158
     26 H2          9.7485    3.3332    2.1760 H         1 <0>         0.1488
     27 C16         9.1400    3.4780    0.0994 C.3       1 <0>         0.1090
     28 C17        13.1504    5.4926    0.8309 C.3       1 <0>         0.0561
     29 O2         13.4684    6.8759    0.9963 O.3       1 <0>        -0.2812
     30 C18        13.9578    7.5276   -0.0846 C.ar      1 <0>         0.4461
     31 C19        14.3027    8.8887   -0.0094 C.ar      1 <0>        -0.2903
     32 C20        14.2706    9.8669    1.0088 C.2       1 <0>         0.1158
     33 N9         14.7152   10.9882    0.5178 N.2       1 <0>        -0.2282
     34 N10        15.0584   10.8113   -0.8286 N.pl3     1 <0>        -0.4689
     35 H3         15.4140   11.4939   -1.4189 H         1 <0>         0.4557
     36 C21        14.8073    9.5147   -1.1666 C.ar      1 <0>         0.3704
     37 N11        14.9371    8.7962   -2.2802 N.ar      1 <0>        -0.5439
     38 C22        14.6007    7.5254   -2.3007 C.ar      1 <0>         0.3860
     39 N12        14.1287    6.8961   -1.2384 N.ar      1 <0>        -0.6092
     40 H4         -0.8931    1.9736    0.0252 H         1 <0>         0.1617
     41 H5          1.6735    2.7967    0.0011 H         1 <0>         0.1634
     42 H6         -0.8667   -0.6456    0.0069 H         1 <0>         0.2158
     43 H7          6.1427   -2.5028    0.5637 H         1 <0>         0.3849
     44 H8         10.2237    0.2651   -0.4012 H         1 <0>         0.1286
     45 H9         10.8427    1.6772   -1.2978 H         1 <0>         0.1148
     46 H10        10.8752    1.2862    1.7304 H         1 <0>         0.1403
     47 H11        12.2846    1.2505    0.6469 H         1 <0>         0.1544
     48 H12        12.0025    3.0313    2.9510 H         1 <0>         0.1421
     49 H13        13.3399    2.9391    1.7844 H         1 <0>         0.1398
     50 H14        10.9121    5.2172    3.4440 H         1 <0>         0.0912
     51 H15        11.4145    6.6783    2.5540 H         1 <0>         0.1065
     52 H16         9.3052    5.7042    1.6374 H         1 <0>         0.1230
     53 H17        10.6225    5.6913    0.4427 H         1 <0>         0.0921
     54 H18         9.4634    4.0037   -0.7990 H         1 <0>         0.1052
     55 H19         8.1461    3.8217    0.3858 H         1 <0>         0.1536
     56 H20        14.0476    4.9458    0.5406 H         1 <0>         0.0865
     57 H21        12.3921    5.3844    0.0554 H         1 <0>         0.0675
     58 H22        13.9338    9.7115    2.0231 H         1 <0>         0.2059
     59 H23        14.7186    6.9727   -3.2210 H         1 <0>         0.2131
     60 H24         8.6760   -0.4109   -0.9272 H         1 <0>         0.4372
     61 H25        11.7789    3.5306    0.0656 H         1 <0>         0.4222
@<TRIPOS>BOND
     1    1    5 2
     2    1    2 1
     3    1   40 1
     4    2    3 2
     5    2   41 1
     6    3    4 1
     7    3    6 1
     8    4    5 1
     9    5   42 1
    10    6   14 2
    11    6    7 1
    12    7    8 2
    13    8   13 1
    14    8    9 1
    15    9   10 2
    16   10   11 1
    17   10   16 1
    18   11   12 1
    19   11   60 1
    20   12   13 1
    21   12   15 2
    22   13   14 1
    23   15   43 1
    24   16   27 1
    25   16   17 1
    26   17   18 1
    27   17   44 1
    28   17   45 1
    29   18   19 1
    30   18   46 1
    31   18   47 1
    32   19   25 1
    33   19   20 1
    34   19   61 1
    35   20   21 1
    36   20   48 1
    37   20   49 1
    38   21   22 1
    39   21   23 1
    40   21   28 1
    41   23   24 1
    42   23   50 1
    43   23   51 1
    44   24   25 1
    45   24   52 1
    46   24   53 1
    47   25   26 1
    48   25   27 1
    49   27   54 1
    50   27   55 1
    51   28   29 1
    52   28   56 1
    53   28   57 1
    54   29   30 1
    55   30   39 ar
    56   30   31 ar
    57   31   36 ar
    58   31   32 1
    59   32   33 2
    60   32   58 1
    61   33   34 1
    62   34   35 1
    63   34   36 1
    64   36   37 ar
    65   37   38 ar
    66   38   39 ar
    67   38   59 1
@<TRIPOS>MOLECULE
CHEMBL360241
   39    42     0     0     0
SMALL
USER_CHARGES

@<TRIPOS>ATOM
      1 C1         -0.0187    1.5258    0.0104 C.3       1 <0>        -0.1458
      2 C2          0.0021   -0.0041    0.0020 C.3       1 <0>        -0.0569
      3 C3          0.7421   -0.5109    1.2415 C.3       1 <0>        -0.1458
      4 C4         -1.4117   -0.5257    0.0127 C.ar      1 <0>        -0.0832
      5 C5         -2.2574   -0.2023    1.0588 C.ar      1 <0>        -0.0852
      6 C6         -3.5562   -0.6790    1.0735 C.ar      1 <0>        -0.1031
      7 C7         -4.0102   -1.4775    0.0456 C.ar      1 <0>        -0.0668
      8 C8         -3.1668   -1.8086   -1.0125 C.ar      1 <0>        -0.0696
      9 C9         -1.8589   -1.3188   -1.0230 C.ar      1 <0>        -0.0598
     10 C10        -3.8964   -2.6685   -1.9739 C.ar      1 <0>         0.2638
     11 C11        -5.1939   -2.8749   -1.5178 C.ar      1 <0>        -0.2372
     12 C12        -6.0613   -3.6612   -2.2752 C.ar      1 <0>         0.3097
     13 N1         -5.6142   -4.1916   -3.4178 N.ar      1 <0>        -0.5484
     14 C13        -4.3727   -3.9741   -3.8215 C.ar      1 <0>         0.5817
     15 N2         -3.5252   -3.2325   -3.1252 N.ar      1 <0>        -0.5546
     16 N3         -3.9462   -4.5409   -5.0103 N.pl3     1 <0>        -0.8170
     17 C14        -7.4446   -3.9034   -1.8242 C.2       1 <0>         0.0365
     18 C15        -8.5362   -4.0298   -2.6275 C.2       1 <0>        -0.1399
     19 C16        -9.6388   -4.2505   -1.7816 C.2       1 <0>        -0.1561
     20 C17        -9.1724   -4.2483   -0.5146 C.2       1 <0>        -0.0150
     21 O1         -7.8466   -4.0438   -0.5452 O.3       1 <0>        -0.1458
     22 Br1       -10.2137   -4.4984    1.0439 Br        1 <0>         0.0636
     23 C18        -5.3442   -2.1350   -0.2145 C.3       1 <0>        -0.0265
     24 H1          1.0039    1.9031    0.0027 H         1 <0>         0.0603
     25 H2         -0.5459    1.8868   -0.8726 H         1 <0>         0.0567
     26 H3         -0.5289    1.8773    0.9072 H         1 <0>         0.0577
     27 H4          0.5123   -0.3556   -0.8948 H         1 <0>         0.0798
     28 H5          0.2319   -0.1594    2.1383 H         1 <0>         0.0577
     29 H6          0.7568   -1.6008    1.2356 H         1 <0>         0.0567
     30 H7          1.7647   -0.1336    1.2338 H         1 <0>         0.0603
     31 H8         -1.9032    0.4229    1.8651 H         1 <0>         0.1316
     32 H9         -4.2147   -0.4257    1.8912 H         1 <0>         0.1320
     33 H10        -1.1965   -1.5650   -1.8397 H         1 <0>         0.1297
     34 H11        -4.5541   -5.0872   -5.5327 H         1 <0>         0.4176
     35 H12        -3.0395   -4.3917   -5.3209 H         1 <0>         0.4177
     36 H13        -8.5529   -3.9714   -3.7058 H         1 <0>         0.1663
     37 H14       -10.6644   -4.3942   -2.0880 H         1 <0>         0.1678
     38 H15        -5.5818   -2.8329    0.5883 H         1 <0>         0.1059
     39 H16        -6.1251   -1.3794   -0.2995 H         1 <0>         0.1038
@<TRIPOS>BOND
     1    1    2 1
     2    1   24 1
     3    1   25 1
     4    1   26 1
     5    2    3 1
     6    2    4 1
     7    2   27 1
     8    3   28 1
     9    3   29 1
    10    3   30 1
    11    4    9 ar
    12    4    5 ar
    13    5    6 ar
    14    5   31 1
    15    6    7 ar
    16    6   32 1
    17    7   23 1
    18    7    8 ar
    19    8    9 ar
    20    8   10 1
    21    9   33 1
    22   10   15 ar
    23   10   11 ar
    24   11   12 ar
    25   11   23 1
    26   12   13 ar
    27   12   17 1
    28   13   14 ar
    29   14   15 ar
    30   14   16 1
    31   16   34 1
    32   16   35 1
    33   17   21 1
    34   17   18 2
    35   18   19 1
    36   18   36 1
    37   19   20 2
    38   19   37 1
    39   20   21 1
    40   20   22 1
    41   23   38 1
    42   23   39 1
@<TRIPOS>MOLECULE
CHEMBL286947
   35    38     0     0     0
SMALL
USER_CHARGES

@<TRIPOS>ATOM
      1 C1         -0.0184    1.5028    0.0103 C.3       1 <0>        -0.0791
      2 C2          0.0021   -0.0041    0.0020 C.2       1 <0>         0.1659
      3 C3          0.0081   -0.8213   -1.1311 C.2       1 <0>        -0.3629
      4 C4         -0.0112   -0.5108   -2.5694 C.2       1 <0>         0.4736
      5 O1          0.1401    0.6147   -3.0099 O.2       1 <0>        -0.4497
      6 C5         -0.2325   -1.6988   -3.4341 C.ar      1 <0>        -0.2075
      7 C6         -0.4776   -1.5326   -4.7974 C.ar      1 <0>        -0.0329
      8 C7         -0.6855   -2.6374   -5.5933 C.ar      1 <0>        -0.1422
      9 C8         -0.6512   -3.9085   -5.0391 C.ar      1 <0>        -0.0579
     10 C9         -0.4088   -4.0844   -3.6952 C.ar      1 <0>        -0.1354
     11 C10        -0.1937   -2.9815   -2.8694 C.ar      1 <0>         0.1487
     12 O2          0.0501   -3.1942   -1.5536 O.3       1 <0>        -0.2079
     13 C11         0.0323   -2.1562   -0.6984 C.2       1 <0>         0.3275
     14 N1          0.0348   -2.1222    0.6428 N.pl3     1 <0>        -0.2883
     15 N2          0.0231   -0.7811    1.0551 N.2       1 <0>        -0.2711
     16 C12         0.0518   -3.2387    1.4898 C.ar      1 <0>         0.1795
     17 C13        -0.6183   -4.3992    1.1239 C.ar      1 <0>        -0.1770
     18 C14        -0.6023   -5.5003    1.9580 C.ar      1 <0>        -0.0479
     19 C15         0.0797   -5.4514    3.1587 C.ar      1 <0>        -0.1911
     20 C16         0.7516   -4.2935    3.5307 C.ar      1 <0>         0.2344
     21 C17         0.7426   -3.1878    2.6914 C.ar      1 <0>        -0.1801
     22 N3          1.4404   -4.2443    4.7447 N.pl3     1 <0>        -0.8716
     23 H1          1.0042    1.8801    0.0026 H         1 <0>         0.0903
     24 H2         -0.5455    1.8639   -0.8728 H         1 <0>         0.0918
     25 H3         -0.5286    1.8543    0.9071 H         1 <0>         0.0823
     26 H4         -0.5045   -0.5420   -5.2269 H         1 <0>         0.1458
     27 H5         -0.8756   -2.5138   -6.6492 H         1 <0>         0.1400
     28 H6         -0.8170   -4.7701   -5.6689 H         1 <0>         0.1434
     29 H7         -0.3851   -5.0806   -3.2789 H         1 <0>         0.1450
     30 H8         -1.1529   -4.4405    0.1864 H         1 <0>         0.1280
     31 H9         -1.1241   -6.4013    1.6710 H         1 <0>         0.1363
     32 H10         0.0901   -6.3137    3.8088 H         1 <0>         0.1302
     33 H11         1.2680   -2.2882    2.9759 H         1 <0>         0.1353
     34 H12         1.4499   -5.0187    5.3287 H         1 <0>         0.4030
     35 H13         1.9093   -3.4356    5.0039 H         1 <0>         0.4018
@<TRIPOS>BOND
     1    1    2 1
     2    1   23 1
     3    1   24 1
     4    1   25 1
     5    2   15 2
     6    2    3 1
     7    3   13 2
     8    3    4 1
     9    4    5 2
    10    4    6 1
    11    6   11 ar
    12    6    7 ar
    13    7    8 ar
    14    7   26 1
    15    8    9 ar
    16    8   27 1
    17    9   10 ar
    18    9   28 1
    19   10   11 ar
    20   10   29 1
    21   11   12 1
    22   12   13 1
    23   13   14 1
    24   14   15 1
    25   14   16 1
    26   16   21 ar
    27   16   17 ar
    28   17   18 ar
    29   17   30 1
    30   18   19 ar
    31   18   31 1
    32   19   20 ar
    33   19   32 1
    34   20   21 ar
    35   20   22 1
    36   21   33 1
    37   22   34 1
    38   22   35 1
@<TRIPOS>MOLECULE
CHEMBL369573
   32    35     0     0     0
SMALL
USER_CHARGES

@<TRIPOS>ATOM
      1 C1         -0.0167    1.3793    0.0096 C.ar      1 <0>        -0.0931
      2 C2          1.1685    2.0929    0.0021 C.ar      1 <0>        -0.1341
      3 C3          2.3774    1.4279   -0.0130 C.ar      1 <0>        -0.0662
      4 C4          2.4029    0.0333   -0.0207 C.ar      1 <0>        -0.0807
      5 C5          1.2046   -0.6805   -0.0131 C.ar      1 <0>        -0.0596
      6 C6          0.0021   -0.0041    0.0020 C.ar      1 <0>        -0.1271
      7 C7          3.6972   -0.6866   -0.0375 C.ar      1 <0>         0.3418
      8 C8          3.8485   -1.9053    0.6416 C.ar      1 <0>        -0.3483
      9 C9          5.0995   -2.5526    0.5963 C.ar      1 <0>         0.3068
     10 N1          6.0850   -1.9878   -0.0854 N.ar      1 <0>        -0.5629
     11 C10         5.9016   -0.8324   -0.7162 C.ar      1 <0>         0.6025
     12 N2          4.7422   -0.1938   -0.7026 N.ar      1 <0>        -0.5703
     13 N3          6.9560   -0.2811   -1.4137 N.pl3     1 <0>        -0.8043
     14 C11         5.0091   -3.8087    1.3828 C.ar      1 <0>        -0.0396
     15 C12         5.9398   -4.8012    1.6568 C.ar      1 <0>        -0.0681
     16 C13         5.5832   -5.8911    2.4363 C.ar      1 <0>        -0.0942
     17 C14         4.3040   -5.9981    2.9448 C.ar      1 <0>        -0.1042
     18 C15         3.3631   -5.0152    2.6796 C.ar      1 <0>        -0.0509
     19 C16         3.7079   -3.9189    1.9009 C.ar      1 <0>        -0.1469
     20 C17         2.9384   -2.7304    1.4536 C.2       1 <0>         0.4638
     21 O1          1.7764   -2.4848    1.7094 O.2       1 <0>        -0.4132
     22 H1         -0.9604    1.9042    0.0260 H         1 <0>         0.1266
     23 H2          1.1475    3.1726    0.0078 H         1 <0>         0.1282
     24 H3          3.3020    1.9860   -0.0192 H         1 <0>         0.1293
     25 H4          1.2180   -1.7604   -0.0194 H         1 <0>         0.1348
     26 H5         -0.9264   -0.5556    0.0083 H         1 <0>         0.1289
     27 H6          7.8124   -0.7360   -1.4376 H         1 <0>         0.4196
     28 H7          6.8412    0.5615   -1.8803 H         1 <0>         0.4208
     29 H8          6.9422   -4.7247    1.2623 H         1 <0>         0.1395
     30 H9          6.3105   -6.6613    2.6467 H         1 <0>         0.1399
     31 H10         4.0354   -6.8506    3.5509 H         1 <0>         0.1405
     32 H11         2.3631   -5.1023    3.0782 H         1 <0>         0.1406
@<TRIPOS>BOND
     1    1    6 ar
     2    1    2 ar
     3    1   22 1
     4    2    3 ar
     5    2   23 1
     6    3    4 ar
     7    3   24 1
     8    4    5 ar
     9    4    7 1
    10    5    6 ar
    11    5   25 1
    12    6   26 1
    13    7   12 ar
    14    7    8 ar
    15    8   20 1
    16    8    9 ar
    17    9   10 ar
    18    9   14 1
    19   10   11 ar
    20   11   12 ar
    21   11   13 1
    22   13   27 1
    23   13   28 1
    24   14   19 ar
    25   14   15 ar
    26   15   16 ar
    27   15   29 1
    28   16   17 ar
    29   16   30 1
    30   17   18 ar
    31   17   31 1
    32   18   19 ar
    33   18   32 1
    34   19   20 1
    35   20   21 2
@<TRIPOS>MOLECULE
CHEMBL193613
   41    45     0     0     0
SMALL
USER_CHARGES

@<TRIPOS>ATOM
      1 C1         -0.0164    1.3567    0.0095 C.ar      1 <0>        -0.1189
      2 C2          1.1685    2.0906    0.0021 C.ar      1 <0>        -0.1024
      3 C3          2.3785    1.4679   -0.0132 C.ar      1 <0>        -0.1214
      4 C4          2.4378    0.0637   -0.0214 C.ar      1 <0>        -0.0304
      5 C5          1.2328   -0.6827   -0.0134 C.ar      1 <0>        -0.0575
      6 C6          0.0021   -0.0041    0.0020 C.ar      1 <0>        -0.0985
      7 C7          1.2920   -2.0865   -0.0210 C.ar      1 <0>        -0.0905
      8 C8          2.5022   -2.7094   -0.0359 C.ar      1 <0>        -0.1220
      9 C9          3.6867   -1.9757   -0.0433 C.ar      1 <0>        -0.0754
     10 C10         3.6681   -0.6146   -0.0367 C.ar      1 <0>        -0.1150
     11 C11         4.9603    0.1606   -0.0459 C.3       1 <0>         0.1555
     12 N1          5.3308    0.5086    1.3281 N.pl3     1 <0>        -0.4728
     13 C12         5.0463    1.6782    1.9694 C.2       1 <0>         0.2597
     14 N2          5.5241    1.6495    3.1800 N.2       1 <0>        -0.4488
     15 C13         6.1433    0.4649    3.3928 C.ar      1 <0>        -0.0880
     16 C14         6.0228   -0.2848    2.2086 C.ar      1 <0>         0.3340
     17 N3          6.5490   -1.5027    2.1571 N.ar      1 <0>        -0.5712
     18 C15         7.1782   -2.0121    3.2049 C.ar      1 <0>         0.5967
     19 N4          7.3152   -1.3466    4.3423 N.ar      1 <0>        -0.5491
     20 C16         6.8250   -0.1140    4.4821 C.ar      1 <0>         0.3625
     21 C17         6.9793    0.6191    5.7503 C.2       1 <0>         0.0106
     22 C18         6.9771    0.0699    6.9970 C.2       1 <0>        -0.1396
     23 C19         7.1532    1.1291    7.9063 C.2       1 <0>        -0.2230
     24 C20         7.2534    2.2616    7.1804 C.2       1 <0>        -0.0113
     25 O1          7.1530    1.9493    5.8793 O.3       1 <0>        -0.1485
     26 N5          7.7122   -3.2870    3.1085 N.pl3     1 <0>        -0.8156
     27 H1         -0.9634    1.8756    0.0259 H         1 <0>         0.1256
     28 H2          1.1258    3.1698    0.0084 H         1 <0>         0.1267
     29 H3          3.2883    2.0497   -0.0195 H         1 <0>         0.1226
     30 H4         -0.9241   -0.5595    0.0082 H         1 <0>         0.1287
     31 H5          0.3820   -2.6682   -0.0147 H         1 <0>         0.1298
     32 H6          2.5450   -3.7886   -0.0417 H         1 <0>         0.1269
     33 H7          4.6338   -2.4947   -0.0548 H         1 <0>         0.1288
     34 H8          5.7467   -0.4491   -0.4909 H         1 <0>         0.1064
     35 H9          4.8331    1.0722   -0.6299 H         1 <0>         0.1092
     36 H10         4.5045    2.5062    1.5366 H         1 <0>         0.2207
     37 H11         6.8624   -0.9760    7.2404 H         1 <0>         0.1558
     38 H12         7.1992    1.0503    8.9825 H         1 <0>         0.1553
     39 H13         7.3950    3.2549    7.5801 H         1 <0>         0.2099
     40 H14         7.6216   -3.7897    2.2839 H         1 <0>         0.4163
     41 H15         8.1766   -3.6768    3.8657 H         1 <0>         0.4184
@<TRIPOS>BOND
     1    1    6 ar
     2    1    2 ar
     3    1   27 1
     4    2    3 ar
     5    2   28 1
     6    3    4 ar
     7    3   29 1
     8    4   10 ar
     9    4    5 ar
    10    5    6 ar
    11    5    7 ar
    12    6   30 1
    13    7    8 ar
    14    7   31 1
    15    8    9 ar
    16    8   32 1
    17    9   10 ar
    18    9   33 1
    19   10   11 1
    20   11   12 1
    21   11   34 1
    22   11   35 1
    23   12   16 1
    24   12   13 1
    25   13   14 2
    26   13   36 1
    27   14   15 1
    28   15   20 ar
    29   15   16 ar
    30   16   17 ar
    31   17   18 ar
    32   18   19 ar
    33   18   26 1
    34   19   20 ar
    35   20   21 1
    36   21   25 1
    37   21   22 2
    38   22   23 1
    39   22   37 1
    40   23   24 2
    41   23   38 1
    42   24   25 1
    43   24   39 1
    44   26   40 1
    45   26   41 1
@<TRIPOS>MOLECULE
CHEMBL383568
   47    51     0     0     0
SMALL
USER_CHARGES

@<TRIPOS>ATOM
      1 C1          0.0326    1.1778   -0.7881 C.2       1 <0>        -0.2178
      2 C2          1.3698    1.6210   -0.7593 C.2       1 <0>        -0.1396
      3 C3          2.1343    0.5391   -0.4539 C.2       1 <0>         0.0449
      4 O1          1.3181   -0.5213   -0.3006 O.3       1 <0>        -0.1543
      5 C4          0.0469   -0.1389   -0.5019 C.2       1 <0>        -0.0075
      6 C5          3.6057    0.5284   -0.3143 C.2       1 <0>         0.3247
      7 N1          4.3458   -0.5419   -0.0192 N.2       1 <0>        -0.4947
      8 C6          5.6217   -0.2017    0.0275 C.2       1 <0>         0.2058
      9 C7          6.8546   -0.9385    0.2987 C.2       1 <0>         0.4875
     10 N2          8.0040   -0.2936    0.2699 N.2       1 <0>        -0.5155
     11 C8          8.0533    1.0199   -0.0032 C.2       1 <0>         0.1647
     12 C9          6.9269    1.7390   -0.2607 C.2       1 <0>         0.0013
     13 N3          5.7071    1.1361   -0.2474 N.pl3     1 <0>        -0.2414
     14 N4          4.3978    1.5783   -0.4681 N.2       1 <0>        -0.2832
     15 C10         9.3676    1.7042   -0.0243 C.ar      1 <0>        -0.0136
     16 C11         9.4381    3.0704   -0.3006 C.ar      1 <0>        -0.1062
     17 C12        10.6582    3.7069   -0.3205 C.ar      1 <0>        -0.0620
     18 C13        11.8267    2.9848   -0.0635 C.ar      1 <0>        -0.1196
     19 C14        11.7550    1.6170    0.2135 C.ar      1 <0>        -0.0942
     20 C15        10.5335    0.9833    0.2377 C.ar      1 <0>        -0.0799
     21 C16        13.1365    3.6667   -0.0850 C.2       1 <0>         0.5626
     22 O2         13.2429    4.7928    0.3607 O.2       1 <0>        -0.5274
     23 N5         14.2138    3.0406   -0.5988 N.am      1 <0>        -0.6118
     24 C17        14.0852    1.7340   -1.2633 C.3       1 <0>         0.0618
     25 C18        14.7844    1.8133   -2.6252 C.3       1 <0>         0.0456
     26 O3         16.1144    2.3051   -2.4436 O.3       1 <0>        -0.3776
     27 C19        16.1809    3.6300   -1.9108 C.3       1 <0>         0.0472
     28 C20        15.5523    3.6464   -0.5173 C.3       1 <0>         0.0759
     29 N6          6.8158   -2.2946    0.5822 N.pl3     1 <0>        -0.8037
     30 H1         -0.8392    1.7805   -0.9958 H         1 <0>         0.1595
     31 H2          1.7198    2.6258   -0.9440 H         1 <0>         0.1600
     32 H3         -0.8203   -0.7801   -0.4438 H         1 <0>         0.2141
     33 H4          7.0016    2.7945   -0.4768 H         1 <0>         0.1819
     34 H5          8.5349    3.6283   -0.4992 H         1 <0>         0.1366
     35 H6         10.7126    4.7639   -0.5350 H         1 <0>         0.1393
     36 H7         12.6575    1.0581    0.4122 H         1 <0>         0.1374
     37 H8         10.4775   -0.0730    0.4554 H         1 <0>         0.1462
     38 H9         14.5566    0.9638   -0.6529 H         1 <0>         0.0831
     39 H10        13.0309    1.4965   -1.4052 H         1 <0>         0.1054
     40 H11        14.8213    0.8206   -3.0739 H         1 <0>         0.1099
     41 H12        14.2326    2.4888   -3.2790 H         1 <0>         0.0577
     42 H13        17.2225    3.9444   -1.8455 H         1 <0>         0.1102
     43 H14        15.6342    4.3121   -2.5620 H         1 <0>         0.0573
     44 H15        15.4691    4.6747   -0.1654 H         1 <0>         0.1046
     45 H16        16.1740    3.0720    0.1695 H         1 <0>         0.0799
     46 H17         5.9660   -2.7619    0.6018 H         1 <0>         0.4246
     47 H18         7.6384   -2.7765    0.7611 H         1 <0>         0.4203
@<TRIPOS>BOND
     1    1    5 2
     2    1    2 1
     3    1   30 1
     4    2    3 2
     5    2   31 1
     6    3    4 1
     7    3    6 1
     8    4    5 1
     9    5   32 1
    10    6   14 2
    11    6    7 1
    12    7    8 2
    13    8   13 1
    14    8    9 1
    15    9   10 2
    16    9   29 1
    17   10   11 1
    18   11   12 2
    19   11   15 1
    20   12   13 1
    21   12   33 1
    22   13   14 1
    23   15   20 ar
    24   15   16 ar
    25   16   17 ar
    26   16   34 1
    27   17   18 ar
    28   17   35 1
    29   18   19 ar
    30   18   21 1
    31   19   20 ar
    32   19   36 1
    33   20   37 1
    34   21   22 2
    35   21   23 am
    36   23   28 1
    37   23   24 1
    38   24   25 1
    39   24   38 1
    40   24   39 1
    41   25   26 1
    42   25   40 1
    43   25   41 1
    44   26   27 1
    45   27   28 1
    46   27   42 1
    47   27   43 1
    48   28   44 1
    49   28   45 1
    50   29   46 1
    51   29   47 1
@<TRIPOS>MOLECULE
CHEMBL408703
   28    30     0     0     0
SMALL
USER_CHARGES

@<TRIPOS>ATOM
      1 C1         -0.0184    1.5028    0.0103 C.3       1 <0>        -0.0859
      2 C2          0.0021   -0.0041    0.0020 C.2       1 <0>         0.0459
      3 C3         -1.0888   -0.8043    0.0027 C.2       1 <0>        -0.2340
      4 C4         -0.6312   -2.1291   -0.0066 C.2       1 <0>        -0.0929
      5 C5          0.7471   -2.0683   -0.0126 C.2       1 <0>        -0.1161
      6 O1          1.1026   -0.7663   -0.0131 O.3       1 <0>        -0.1259
      7 C6          1.6603   -3.2111   -0.0227 C.2       1 <0>         0.4968
      8 O2          1.2167   -4.3445   -0.0264 O.2       1 <0>        -0.4042
      9 C7          3.1251   -2.9889   -0.0284 C.ar      1 <0>         0.1712
     10 C8          4.0071   -4.0574   -0.0437 C.ar      1 <0>        -0.1950
     11 C9          5.4092   -3.8437   -0.0496 C.ar      1 <0>         0.1719
     12 C10         6.2045   -5.0555   -0.0659 C.2       1 <0>        -0.1448
     13 C11         5.5853   -6.2489   -0.0739 C.2       1 <0>        -0.1148
     14 S1          3.8539   -5.8220   -0.0600 S.3       1 <0>         0.1715
     15 N1          5.8059   -2.5538   -0.0389 N.ar      1 <0>        -0.4275
     16 C12         4.9377   -1.5728   -0.0241 C.ar      1 <0>         0.2350
     17 N2          3.6317   -1.7529   -0.0244 N.ar      1 <0>        -0.4121
     18 C13         5.4610   -0.1597   -0.0124 C.3       1 <0>         0.5517
     19 F1          6.8159   -0.1612   -0.3612 F         1 <0>        -0.1521
     20 F2          4.7433    0.6111   -0.9333 F         1 <0>        -0.1548
     21 F3          5.3098    0.3830    1.2682 F         1 <0>        -0.1592
     22 H1          1.0042    1.8801    0.0026 H         1 <0>         0.0839
     23 H2         -0.5455    1.8639   -0.8728 H         1 <0>         0.0945
     24 H3         -0.5286    1.8543    0.9071 H         1 <0>         0.0945
     25 H4         -2.1197   -0.4825    0.0098 H         1 <0>         0.1607
     26 H5         -1.2384   -3.0222   -0.0086 H         1 <0>         0.1642
     27 H6          7.2831   -5.0003   -0.0718 H         1 <0>         0.1644
     28 H7          6.0308   -7.2327   -0.0865 H         1 <0>         0.2131
@<TRIPOS>BOND
     1    1    2 1
     2    1   22 1
     3    1   23 1
     4    1   24 1
     5    2    6 1
     6    2    3 2
     7    3    4 1
     8    3   25 1
     9    4    5 2
    10    4   26 1
    11    5    6 1
    12    5    7 1
    13    7    8 2
    14    7    9 1
    15    9   17 ar
    16    9   10 ar
    17   10   14 1
    18   10   11 ar
    19   11   12 1
    20   11   15 ar
    21   12   13 2
    22   12   27 1
    23   13   14 1
    24   13   28 1
    25   15   16 ar
    26   16   17 ar
    27   16   18 1
    28   18   19 1
    29   18   20 1
    30   18   21 1
@<TRIPOS>MOLECULE
CHEMBL603581
   69    73     0     0     0
SMALL
USER_CHARGES

@<TRIPOS>ATOM
      1 C1         -0.4958    1.7066    0.2446 C.3       1 <0>        -0.1229
      2 C2         -0.3288    0.2201    0.0617 C.ar      1 <0>        -0.0752
      3 C3         -0.5236   -0.3495   -1.1829 C.ar      1 <0>        -0.1182
      4 C4         -0.3705   -1.7128   -1.3506 C.ar      1 <0>        -0.1140
      5 C5         -0.0220   -2.5070   -0.2739 C.ar      1 <0>        -0.1235
      6 C6          0.1736   -1.9374    0.9702 C.ar      1 <0>        -0.1008
      7 C7          0.0246   -0.5731    1.1370 C.ar      1 <0>        -0.0803
      8 C8          0.2431    0.0486    2.4923 C.3       1 <0>        -0.0240
      9 C9          1.6165   -0.3627    3.0267 C.3       1 <0>         0.1387
     10 N1          2.6627    0.1997    2.1691 N.pl3     1 <0>        -0.6895
     11 C10         3.9953   -0.0390    2.4560 C.ar      1 <0>         0.5077
     12 C11         5.0122    0.4973    1.6476 C.ar      1 <0>        -0.1011
     13 C12         6.3465    0.2203    1.9892 C.ar      1 <0>         0.3084
     14 N2          6.5974   -0.5324    3.0557 N.ar      1 <0>        -0.5643
     15 C13         5.6123   -1.0133    3.7841 C.ar      1 <0>         0.3611
     16 N3          4.3432   -0.7762    3.5055 N.ar      1 <0>        -0.5890
     17 N4          7.1174    0.8555    1.0487 N.pl3     1 <0>        -0.4636
     18 C14         6.2717    1.4842    0.1841 C.2       1 <0>         0.2797
     19 N5          5.0371    1.2728    0.5372 N.2       1 <0>        -0.4663
     20 C15         8.5810    0.8581    0.9857 C.3       1 <0>         0.3144
     21 C16         9.1421    1.9788    1.8871 C.3       1 <0>         0.0771
     22 H1          9.4974    1.5733    2.8345 H         1 <0>         0.0985
     23 C17        10.3251    2.5219    1.0401 C.3       1 <0>         0.0473
     24 H2         11.2224    1.9208    1.1875 H         1 <0>         0.0932
     25 C18         9.7649    2.3466   -0.3939 C.3       1 <0>         0.0515
     26 H3          9.1170    3.1844   -0.6520 H         1 <0>         0.0982
     27 O1          9.0092    1.1256   -0.3547 O.3       1 <0>        -0.3466
     28 C19        10.9106    2.2324   -1.4014 C.3       1 <0>         0.0780
     29 O2         10.3773    2.1887   -2.7264 O.3       1 <0>        -0.5627
     30 O3         10.5775    3.8981    1.3307 O.3       1 <0>        -0.5427
     31 O4          8.1606    2.9938    2.1071 O.3       1 <0>        -0.5341
     32 C20        -0.8276   -0.4255    3.4409 C.ar      1 <0>         0.0077
     33 C21        -0.8100   -1.7264    3.9063 C.ar      1 <0>        -0.1796
     34 C22        -1.7948   -2.1653    4.7800 C.ar      1 <0>         0.1710
     35 C23        -2.7969   -1.2974    5.1857 C.ar      1 <0>        -0.2981
     36 C24        -2.8123    0.0073    4.7174 C.ar      1 <0>         0.1698
     37 C25        -1.8220    0.4431    3.8483 C.ar      1 <0>        -0.1790
     38 O5         -3.7934    0.8603    5.1130 O.3       1 <0>        -0.3128
     39 C26        -4.7768    0.3454    6.0129 C.3       1 <0>         0.0263
     40 O6         -1.7773   -3.4450    5.2370 O.3       1 <0>        -0.3118
     41 C27        -2.8221   -3.8281    6.1335 C.3       1 <0>         0.0263
     42 H4          0.4758    2.1941    0.1632 H         1 <0>         0.0733
     43 H5         -1.1626    2.0948   -0.5253 H         1 <0>         0.0687
     44 H6         -0.9212    1.9062    1.2281 H         1 <0>         0.0698
     45 H7         -0.7958    0.2709   -2.0240 H         1 <0>         0.1218
     46 H8         -0.5234   -2.1578   -2.3227 H         1 <0>         0.1205
     47 H9          0.0969   -3.5724   -0.4048 H         1 <0>         0.1205
     48 H10         0.4455   -2.5578    1.8114 H         1 <0>         0.1222
     49 H11         0.1972    1.1342    2.4057 H         1 <0>         0.1032
     50 H12         1.7385    0.0130    4.0426 H         1 <0>         0.0789
     51 H13         1.6946   -1.4499    3.0295 H         1 <0>         0.0770
     52 H14         2.4213    0.7395    1.4001 H         1 <0>         0.4179
     53 H15         5.8507   -1.6217    4.6441 H         1 <0>         0.2019
     54 H16         6.5807    2.0711   -0.6683 H         1 <0>         0.2140
     55 H17         8.9668   -0.1081    1.3112 H         1 <0>         0.1357
     56 H18        11.5685    3.0959   -1.3029 H         1 <0>         0.0635
     57 H19        11.4759    1.3210   -1.2070 H         1 <0>         0.0591
     58 H20        11.0487    2.1162   -3.4185 H         1 <0>         0.3856
     59 H21        11.3080    4.2793    0.8247 H         1 <0>         0.3902
     60 H22         8.4651    3.7204    2.6678 H         1 <0>         0.3932
     61 H23        -0.0294   -2.4022    3.5897 H         1 <0>         0.1342
     62 H24        -3.5644   -1.6373    5.8653 H         1 <0>         0.1343
     63 H25        -1.8311    1.4607    3.4866 H         1 <0>         0.1325
     64 H26        -5.4992    1.1271    6.2477 H         1 <0>         0.1028
     65 H27        -5.2903   -0.4959    5.5474 H         1 <0>         0.0553
     66 H28        -4.2910    0.0122    6.9300 H         1 <0>         0.0558
     67 H29        -2.7866   -3.1990    7.0229 H         1 <0>         0.0557
     68 H30        -3.7866   -3.7063    5.6406 H         1 <0>         0.0550
     69 H31        -2.6900   -4.8712    6.4208 H         1 <0>         0.1029
@<TRIPOS>BOND
     1    1    2 1
     2    1   42 1
     3    1   43 1
     4    1   44 1
     5    2    7 ar
     6    2    3 ar
     7    3    4 ar
     8    3   45 1
     9    4    5 ar
    10    4   46 1
    11    5    6 ar
    12    5   47 1
    13    6    7 ar
    14    6   48 1
    15    7    8 1
    16    8    9 1
    17    8   32 1
    18    8   49 1
    19    9   10 1
    20    9   50 1
    21    9   51 1
    22   10   11 1
    23   10   52 1
    24   11   16 ar
    25   11   12 ar
    26   12   19 1
    27   12   13 ar
    28   13   14 ar
    29   13   17 1
    30   14   15 ar
    31   15   16 ar
    32   15   53 1
    33   17   18 1
    34   17   20 1
    35   18   19 2
    36   18   54 1
    37   20   27 1
    38   20   21 1
    39   20   55 1
    40   21   22 1
    41   21   23 1
    42   21   31 1
    43   23   24 1
    44   23   25 1
    45   23   30 1
    46   25   26 1
    47   25   27 1
    48   25   28 1
    49   28   29 1
    50   28   56 1
    51   28   57 1
    52   29   58 1
    53   30   59 1
    54   31   60 1
    55   32   37 ar
    56   32   33 ar
    57   33   34 ar
    58   33   61 1
    59   34   35 ar
    60   34   40 1
    61   35   36 ar
    62   35   62 1
    63   36   37 ar
    64   36   38 1
    65   37   63 1
    66   38   39 1
    67   39   64 1
    68   39   65 1
    69   39   66 1
    70   40   41 1
    71   41   67 1
    72   41   68 1
    73   41   69 1
@<TRIPOS>MOLECULE
CHEMBL259319
   51    55     0     0     0
SMALL
USER_CHARGES

@<TRIPOS>ATOM
      1 C1         -0.0167    1.3792    0.0096 C.ar      1 <0>        -0.0915
      2 C2          1.1685    2.0928    0.0021 C.ar      1 <0>        -0.1260
      3 C3          2.3774    1.4278   -0.0129 C.ar      1 <0>        -0.0550
      4 C4          2.4029    0.0333   -0.0206 C.ar      1 <0>        -0.0753
      5 C5          1.2046   -0.6805   -0.0130 C.ar      1 <0>        -0.0873
      6 C6          0.0021   -0.0041    0.0020 C.ar      1 <0>        -0.1216
      7 C7          3.6971   -0.6866   -0.0373 C.ar      1 <0>         0.3105
      8 C8          3.8457   -1.9114    0.6465 C.ar      1 <0>        -0.1610
      9 C9          5.1026   -2.5509    0.5946 C.ar      1 <0>         0.3155
     10 N1          6.0868   -1.9765   -0.0916 N.ar      1 <0>        -0.5431
     11 C10         5.9003   -0.8255   -0.7180 C.ar      1 <0>         0.5748
     12 N2          4.7374   -0.1924   -0.7016 N.ar      1 <0>        -0.4967
     13 N3          6.9575   -0.2660   -1.4200 N.am      1 <0>        -0.6363
     14 C11         6.7927    0.9053   -2.0661 C.2       1 <0>         0.5154
     15 O1          5.7201    1.4699   -2.0336 O.2       1 <0>        -0.4530
     16 C12         7.9415    1.5132   -2.8289 C.3       1 <0>        -0.1094
     17 C13         8.3332    0.6133   -4.0272 C.3       1 <0>        -0.1174
     18 C14         9.0291    1.6083   -4.9888 C.3       1 <0>        -0.1234
     19 C15         8.2045    2.9051   -4.8531 C.3       1 <0>        -0.1261
     20 C16         7.5130    2.8446   -3.4798 C.3       1 <0>        -0.1128
     21 C17         5.3220   -3.8376    1.2917 C.ar      1 <0>        -0.0641
     22 C18         4.6819   -4.0936    2.5051 C.ar      1 <0>        -0.0730
     23 C19         4.8875   -5.2926    3.1536 C.ar      1 <0>        -0.0992
     24 C20         5.7303   -6.2483    2.6038 C.ar      1 <0>         0.0619
     25 C21         6.3725   -5.9983    1.3912 C.ar      1 <0>         0.0278
     26 C22         6.1650   -4.8000    0.7342 C.ar      1 <0>        -0.0452
     27 O2          7.1362   -7.0837    1.0707 O.3       1 <0>        -0.3034
     28 C23         7.2761   -7.8294    2.2944 C.3       1 <0>         0.2120
     29 O3          6.0925   -7.4893    3.0401 O.3       1 <0>        -0.3032
     30 C24         2.7541   -2.4882    1.3720 C.1       1 <0>         0.2643
     31 N4          1.8881   -2.9457    1.9476 N.1       1 <0>        -0.3920
     32 H1         -0.9604    1.9042    0.0260 H         1 <0>         0.1291
     33 H2          1.1475    3.1726    0.0077 H         1 <0>         0.1315
     34 H3          3.3020    1.9860   -0.0191 H         1 <0>         0.1369
     35 H4          1.2180   -1.7604   -0.0193 H         1 <0>         0.1237
     36 H5         -0.9264   -0.5556    0.0079 H         1 <0>         0.1303
     37 H6          7.8155   -0.7177   -1.4460 H         1 <0>         0.4278
     38 H7          8.7960    1.6682   -2.1703 H         1 <0>         0.1086
     39 H8          9.0249   -0.1685   -3.7133 H         1 <0>         0.0766
     40 H9          7.4467    0.1822   -4.4925 H         1 <0>         0.0742
     41 H10        10.0607    1.7783   -4.6808 H         1 <0>         0.0707
     42 H11         8.9919    1.2381   -6.0133 H         1 <0>         0.0710
     43 H12         8.8624    3.7727   -4.9019 H         1 <0>         0.0676
     44 H13         7.4576    2.9572   -5.6452 H         1 <0>         0.0671
     45 H14         6.4305    2.8674   -3.6055 H         1 <0>         0.0858
     46 H15         7.8353    3.6829   -2.8622 H         1 <0>         0.0710
     47 H16         4.0257   -3.3521    2.9363 H         1 <0>         0.1408
     48 H17         4.3915   -5.4887    4.0927 H         1 <0>         0.1462
     49 H18         6.6581   -4.6070   -0.2070 H         1 <0>         0.1486
     50 H19         7.3052   -8.8996    2.0895 H         1 <0>         0.1366
     51 H20         8.1709   -7.5172    2.8330 H         1 <0>         0.0899
@<TRIPOS>BOND
     1    1    6 ar
     2    1    2 ar
     3    1   32 1
     4    2    3 ar
     5    2   33 1
     6    3    4 ar
     7    3   34 1
     8    4    5 ar
     9    4    7 1
    10    5    6 ar
    11    5   35 1
    12    6   36 1
    13    7   12 ar
    14    7    8 ar
    15    8    9 ar
    16    8   30 1
    17    9   10 ar
    18    9   21 1
    19   10   11 ar
    20   11   12 ar
    21   11   13 1
    22   13   14 am
    23   13   37 1
    24   14   15 2
    25   14   16 1
    26   16   20 1
    27   16   17 1
    28   16   38 1
    29   17   18 1
    30   17   39 1
    31   17   40 1
    32   18   19 1
    33   18   41 1
    34   18   42 1
    35   19   20 1
    36   19   43 1
    37   19   44 1
    38   20   45 1
    39   20   46 1
    40   21   26 ar
    41   21   22 ar
    42   22   23 ar
    43   22   47 1
    44   23   24 ar
    45   23   48 1
    46   24   29 1
    47   24   25 ar
    48   25   26 ar
    49   25   27 1
    50   26   49 1
    51   27   28 1
    52   28   29 1
    53   28   50 1
    54   28   51 1
    55   30   31 3
@<TRIPOS>MOLECULE
CHEMBL472111
   56    61     0     0     0
SMALL
USER_CHARGES

@<TRIPOS>ATOM
      1 C1          0.0329    1.3186    0.3499 C.2       1 <0>        -0.2205
      2 C2          1.3776    1.7395    0.3417 C.2       1 <0>        -0.1269
      3 C3          2.1385    0.6175    0.2411 C.2       1 <0>         0.0268
      4 O1          1.3131   -0.4457    0.1895 O.3       1 <0>        -0.1521
      5 C4          0.0395   -0.0256    0.2550 C.2       1 <0>         0.0059
      6 C5          3.6151    0.5721    0.1963 C.2       1 <0>         0.3643
      7 N1          4.3537   -0.5399    0.0917 N.2       1 <0>        -0.5054
      8 C6          5.6317   -0.2225    0.0798 C.2       1 <0>         0.4001
      9 C7          6.8760   -0.9868   -0.0123 C.2       1 <0>        -0.2570
     10 C8          7.1915   -2.3528   -0.1245 C.2       1 <0>         0.1543
     11 N2          8.4900   -2.4742   -0.1699 N.2       1 <0>        -0.2677
     12 N3          9.0804   -1.2068   -0.0904 N.pl3     1 <0>        -0.3754
     13 C9          8.0873   -0.2788    0.0075 C.2       1 <0>         0.3743
     14 N4          8.0705    1.0575    0.1095 N.2       1 <0>        -0.5805
     15 C10         6.9544    1.7391    0.1926 C.2       1 <0>         0.7060
     16 N5          5.7277    1.1412    0.1799 N.pl3     1 <0>        -0.3790
     17 N6          4.4137    1.6216    0.2473 N.2       1 <0>        -0.2937
     18 N7          7.0217    3.1090    0.2947 N.pl3     1 <0>        -0.7946
     19 C11        10.5183   -0.9269   -0.1083 C.3       1 <0>         0.1250
     20 C12        10.9797   -0.7205   -1.5524 C.3       1 <0>        -0.0371
     21 N8         12.3907   -0.3119   -1.5619 N.4       1 <0>        -0.3716
     22 C13        12.7198    0.1562   -2.8963 C.3       1 <0>        -0.0095
     23 C14        14.0737    0.8730   -2.9098 C.3       1 <0>        -0.1020
     24 C15        15.1595   -0.1706   -3.0776 C.ar      1 <0>        -0.0582
     25 C16        15.8815   -0.2296   -4.2551 C.ar      1 <0>        -0.0983
     26 C17        16.8712   -1.1848   -4.4022 C.ar      1 <0>        -0.0439
     27 C18        17.1344   -2.0736   -3.3764 C.ar      1 <0>        -0.0351
     28 C19        16.4095   -2.0094   -2.2000 C.ar      1 <0>        -0.0395
     29 C20        15.4213   -1.0528   -2.0585 C.ar      1 <0>        -0.1048
     30 C21        14.6240   -0.9764   -0.7723 C.3       1 <0>        -0.0952
     31 C22        13.1890   -1.4213   -1.0720 C.3       1 <0>        -0.0199
     32 N9         18.1937   -3.0949   -3.5369 N.pl3     1 <0>         0.0227
     33 O2         18.8281   -3.1515   -4.5645 O.2       1 <0>        -0.1392
     34 O3         18.4245   -3.8725   -2.6404 O.3       1 <0>        -0.1433
     35 H1         -0.8381    1.9529    0.4232 H         1 <0>         0.1625
     36 H2          1.7347    2.7569    0.4028 H         1 <0>         0.1610
     37 H3         -0.8345   -0.6597    0.2357 H         1 <0>         0.2174
     38 H4          6.4797   -3.1639   -0.1661 H         1 <0>         0.2097
     39 H5          7.8842    3.5528    0.3042 H         1 <0>         0.4309
     40 H6          6.2068    3.6313    0.3572 H         1 <0>         0.4316
     41 H7         10.7202   -0.0253    0.4700 H         1 <0>         0.1182
     42 H8         11.0575   -1.7673    0.3288 H         1 <0>         0.1230
     43 H9         10.8676   -1.6525   -2.1064 H         1 <0>         0.1436
     44 H10        10.3736    0.0554   -2.0201 H         1 <0>         0.1399
     45 H11        12.7593   -0.6959   -3.5748 H         1 <0>         0.1333
     46 H12        11.9464    0.8460   -3.2343 H         1 <0>         0.1443
     47 H13        14.1087    1.5772   -3.7410 H         1 <0>         0.1289
     48 H14        14.2174    1.4053   -1.9696 H         1 <0>         0.1071
     49 H15        15.6740    0.4655   -5.0553 H         1 <0>         0.1572
     50 H16        17.4388   -1.2366   -5.3196 H         1 <0>         0.1633
     51 H17        16.6138   -2.7024   -1.3973 H         1 <0>         0.1627
     52 H18        15.0655   -1.6369   -0.0261 H         1 <0>         0.1287
     53 H19        14.6213    0.0486   -0.4015 H         1 <0>         0.1061
     54 H20        12.7375   -1.8117   -0.1600 H         1 <0>         0.1449
     55 H21        13.2084   -2.2084   -1.8259 H         1 <0>         0.1358
     56 H22        12.4984    0.4615   -0.9228 H         1 <0>         0.4208
@<TRIPOS>BOND
     1    1    5 2
     2    1    2 1
     3    1   35 1
     4    2    3 2
     5    2   36 1
     6    3    4 1
     7    3    6 1
     8    4    5 1
     9    5   37 1
    10    6   17 2
    11    6    7 1
    12    7    8 2
    13    8   16 1
    14    8    9 1
    15    9   13 2
    16    9   10 1
    17   10   11 2
    18   10   38 1
    19   11   12 1
    20   12   13 1
    21   12   19 1
    22   13   14 1
    23   14   15 2
    24   15   16 1
    25   15   18 1
    26   16   17 1
    27   18   39 1
    28   18   40 1
    29   19   20 1
    30   19   41 1
    31   19   42 1
    32   20   21 1
    33   20   43 1
    34   20   44 1
    35   21   31 1
    36   21   22 1
    37   21   56 1
    38   22   23 1
    39   22   45 1
    40   22   46 1
    41   23   24 1
    42   23   47 1
    43   23   48 1
    44   24   29 ar
    45   24   25 ar
    46   25   26 ar
    47   25   49 1
    48   26   27 ar
    49   26   50 1
    50   27   28 ar
    51   27   32 1
    52   28   29 ar
    53   28   51 1
    54   29   30 1
    55   30   31 1
    56   30   52 1
    57   30   53 1
    58   31   54 1
    59   31   55 1
    60   32   33 2
    61   32   34 1
@<TRIPOS>MOLECULE
CHEMBL1095811
   55    59     0     0     0
SMALL
USER_CHARGES

@<TRIPOS>ATOM
      1 C1         -0.0167    1.3793    0.0096 C.ar      1 <0>        -0.0938
      2 C2          1.1685    2.0928    0.0021 C.ar      1 <0>        -0.1348
      3 C3          2.3774    1.4278   -0.0129 C.ar      1 <0>        -0.0669
      4 C4          2.4029    0.0333   -0.0206 C.ar      1 <0>        -0.0797
      5 C5          1.2046   -0.6805   -0.0130 C.ar      1 <0>        -0.0585
      6 C6          0.0021   -0.0041    0.0020 C.ar      1 <0>        -0.1275
      7 C7          3.6972   -0.6867   -0.0373 C.ar      1 <0>         0.3375
      8 C8          3.8485   -1.9052    0.6418 C.ar      1 <0>        -0.3406
      9 C9          5.0990   -2.5520    0.5965 C.ar      1 <0>         0.3021
     10 N1          6.0850   -1.9873   -0.0846 N.ar      1 <0>        -0.5621
     11 C10         5.9021   -0.8317   -0.7150 C.ar      1 <0>         0.5999
     12 N2          4.7422   -0.1939   -0.7024 N.ar      1 <0>        -0.5695
     13 N3          6.9569   -0.2801   -1.4120 N.pl3     1 <0>        -0.8060
     14 C11         5.0073   -3.8086    1.3828 C.ar      1 <0>         0.0146
     15 C12         5.9358   -4.7988    1.6558 C.ar      1 <0>        -0.1426
     16 C13         5.5750   -5.8959    2.4403 C.ar      1 <0>         0.2457
     17 C14         4.2862   -5.9985    2.9488 C.ar      1 <0>        -0.1931
     18 C15         3.3534   -5.0149    2.6806 C.ar      1 <0>         0.0052
     19 C16         3.7034   -3.9174    1.9004 C.ar      1 <0>        -0.2113
     20 C17         2.9375   -2.7308    1.4534 C.2       1 <0>         0.4679
     21 O1          1.7751   -2.4843    1.7089 O.2       1 <0>        -0.4239
     22 N4          6.5081   -6.8890    2.7129 N.pl3     1 <0>        -0.7351
     23 C18         6.1322   -8.0414    3.5358 C.3       1 <0>         0.1176
     24 C19         7.3334   -8.9777    3.6812 C.3       1 <0>         0.0487
     25 N5          6.9565  -10.1332    4.5063 N.3       1 <0>        -0.5538
     26 C20         6.6199   -9.7172    5.8697 C.3       1 <0>         0.0546
     27 C21         5.8277  -10.8252    6.5717 C.3       1 <0>        -0.5970
     28 S1          6.8770  -12.3068    6.6800 S.o2      1 <0>         2.4102
     29 O2          6.0589  -13.4171    7.0226 O.2       1 <0>        -0.9377
     30 O3          8.0075  -12.0033    7.4856 O.2       1 <0>        -0.9370
     31 C22         7.4232  -12.4995    4.9559 C.3       1 <0>        -0.5972
     32 C23         7.9976  -11.1629    4.4744 C.3       1 <0>         0.0651
     33 H1         -0.9604    1.9042    0.0260 H         1 <0>         0.1259
     34 H2          1.1475    3.1726    0.0077 H         1 <0>         0.1276
     35 H3          3.3020    1.9859   -0.0191 H         1 <0>         0.1287
     36 H4          1.2180   -1.7604   -0.0193 H         1 <0>         0.1361
     37 H5         -0.9264   -0.5557    0.0082 H         1 <0>         0.1286
     38 H6          7.8133   -0.7350   -1.4359 H         1 <0>         0.4189
     39 H7          6.8423    0.5627   -1.8783 H         1 <0>         0.4204
     40 H8          6.9385   -4.7227    1.2620 H         1 <0>         0.1369
     41 H9          4.0125   -6.8494    3.5551 H         1 <0>         0.1364
     42 H10         2.3523   -5.0978    3.0772 H         1 <0>         0.1393
     43 H11         7.4083   -6.8192    2.3584 H         1 <0>         0.4048
     44 H12         5.8184   -7.6972    4.5212 H         1 <0>         0.0690
     45 H13         5.3106   -8.5758    3.0588 H         1 <0>         0.0792
     46 H14         7.6473   -9.3219    2.6958 H         1 <0>         0.0917
     47 H15         8.1551   -8.4433    4.1581 H         1 <0>         0.0521
     48 H16         7.5370   -9.5202    6.4250 H         1 <0>         0.0636
     49 H17         6.0180   -8.8092    5.8331 H         1 <0>         0.1044
     50 H18         5.5510  -10.4985    7.5741 H         1 <0>         0.1413
     51 H19         4.9299  -11.0535    5.9973 H         1 <0>         0.1442
     52 H20         8.1920  -13.2700    4.8993 H         1 <0>         0.1411
     53 H21         6.5742  -12.7790    4.3320 H         1 <0>         0.1441
     54 H22         8.3665  -11.2736    3.4547 H         1 <0>         0.1020
     55 H23         8.8200  -10.8667    5.1256 H         1 <0>         0.0630
@<TRIPOS>BOND
     1    1    6 ar
     2    1    2 ar
     3    1   33 1
     4    2    3 ar
     5    2   34 1
     6    3    4 ar
     7    3   35 1
     8    4    5 ar
     9    4    7 1
    10    5    6 ar
    11    5   36 1
    12    6   37 1
    13    7   12 ar
    14    7    8 ar
    15    8   20 1
    16    8    9 ar
    17    9   10 ar
    18    9   14 1
    19   10   11 ar
    20   11   12 ar
    21   11   13 1
    22   13   38 1
    23   13   39 1
    24   14   19 ar
    25   14   15 ar
    26   15   16 ar
    27   15   40 1
    28   16   17 ar
    29   16   22 1
    30   17   18 ar
    31   17   41 1
    32   18   19 ar
    33   18   42 1
    34   19   20 1
    35   20   21 2
    36   22   23 1
    37   22   43 1
    38   23   24 1
    39   23   44 1
    40   23   45 1
    41   24   25 1
    42   24   46 1
    43   24   47 1
    44   25   32 1
    45   25   26 1
    46   26   27 1
    47   26   48 1
    48   26   49 1
    49   27   28 1
    50   27   50 1
    51   27   51 1
    52   28   29 2
    53   28   30 2
    54   28   31 1
    55   31   32 1
    56   31   52 1
    57   31   53 1
    58   32   54 1
    59   32   55 1
@<TRIPOS>MOLECULE
CHEMBL176229
   66    71     0     0     0
SMALL
USER_CHARGES

@<TRIPOS>ATOM
      1 C1         -0.0167    1.3777   -0.0049 C.ar      1 <0>        -0.0717
      2 C2          1.1668    2.0885    0.0019 C.ar      1 <0>        -0.1260
      3 C3          2.3866    1.4125    0.0012 C.ar      1 <0>        -0.0009
      4 C4          2.4064    0.0193   -0.0063 C.ar      1 <0>        -0.1412
      5 C5          1.2130   -0.6867   -0.0131 C.ar      1 <0>         0.1905
      6 C6          0.0020   -0.0040   -0.0124 C.ar      1 <0>        -0.1676
      7 N1          1.2276   -2.0836   -0.0212 N.pl3     1 <0>        -0.6439
      8 C7          2.4918   -2.8262   -0.1415 C.3       1 <0>         0.0990
      9 C8          2.5466   -3.8757    0.9735 C.3       1 <0>        -0.0208
     10 N2          1.3430   -4.7146    0.9143 N.4       1 <0>        -0.3806
     11 C9          0.1526   -3.9020    1.1949 C.3       1 <0>        -0.0268
     12 C10        -0.0202   -2.8537    0.0966 C.3       1 <0>         0.1010
     13 C11         1.4470   -5.7882    1.9117 C.3       1 <0>        -0.0098
     14 C12         0.2541   -6.7353    1.7677 C.3       1 <0>         0.0271
     15 N3          0.3581   -7.8089    2.7651 N.3       1 <0>        -0.5297
     16 C13         1.5164   -8.6718    2.4914 C.3       1 <0>         0.0080
     17 C14         1.6216   -9.7378    3.5852 C.3       1 <0>         0.0606
     18 O1          0.3981  -10.4761    3.6436 O.3       1 <0>        -0.3780
     19 C15        -0.7507   -9.6667    3.9091 C.3       1 <0>         0.0602
     20 C16        -0.8799   -8.6000    2.8186 C.3       1 <0>         0.0182
     21 C17         3.6582    2.1739    0.0080 C.2       1 <0>         0.2361
     22 C18         3.6347    3.5568    0.0208 C.2       1 <0>        -0.2033
     23 C19         4.8600    4.2475    0.0274 C.2       1 <0>         0.3498
     24 N4          5.1859    5.5305    0.0394 N.2       1 <0>        -0.5170
     25 C20         6.5169    5.6547    0.0407 C.2       1 <0>         0.3609
     26 N5          7.0688    4.4545    0.0297 N.2       1 <0>        -0.3170
     27 N6          6.0239    3.5217    0.0209 N.pl3     1 <0>        -0.3617
     28 C21         5.9769    2.1606    0.0079 C.2       1 <0>         0.6566
     29 N7          4.8303    1.5202    0.0073 N.2       1 <0>        -0.5570
     30 N8          7.1509    1.4441    0.0010 N.pl3     1 <0>        -0.8069
     31 C22         7.2557    6.9348    0.0520 C.2       1 <0>         0.0272
     32 C23         6.7011    8.1758    0.0685 C.2       1 <0>        -0.1209
     33 C24         7.7673    9.0968    0.0742 C.2       1 <0>        -0.2192
     34 C25         8.9083    8.3799    0.0610 C.2       1 <0>        -0.0018
     35 O2          8.5955    7.0742    0.0535 O.3       1 <0>        -0.1608
     36 H1         -0.9602    1.9032    0.0002 H         1 <0>         0.1365
     37 H2          1.1481    3.1683    0.0074 H         1 <0>         0.1365
     38 H3          3.3484   -0.5091   -0.0073 H         1 <0>         0.1374
     39 H4         -0.9268   -0.5551   -0.0174 H         1 <0>         0.1267
     40 H5          2.5354   -3.3203   -1.1121 H         1 <0>         0.0885
     41 H6          3.3315   -2.1388   -0.0391 H         1 <0>         0.1298
     42 H7          3.4310   -4.4992    0.8426 H         1 <0>         0.1406
     43 H8          2.5941   -3.3760    1.9411 H         1 <0>         0.1347
     44 H9         -0.7270   -4.5448    1.2272 H         1 <0>         0.1405
     45 H10         0.2725   -3.4014    2.1558 H         1 <0>         0.1355
     46 H11        -0.8405   -2.1846    0.3563 H         1 <0>         0.1277
     47 H12        -0.2346   -3.3507   -0.8496 H         1 <0>         0.0875
     48 H13         2.3721   -6.3425    1.7537 H         1 <0>         0.1312
     49 H14         1.4489   -5.3557    2.9122 H         1 <0>         0.1401
     50 H15        -0.6711   -6.1811    1.9257 H         1 <0>         0.0990
     51 H16         0.2522   -7.1678    0.7672 H         1 <0>         0.0592
     52 H17         1.3892   -9.1555    1.5229 H         1 <0>         0.0535
     53 H18         2.4248   -8.0695    2.4816 H         1 <0>         0.0864
     54 H19         2.4446  -10.4147    3.3559 H         1 <0>         0.1056
     55 H20         1.8024   -9.2565    4.5463 H         1 <0>         0.0646
     56 H21        -1.6433  -10.2922    3.9140 H         1 <0>         0.1078
     57 H22        -0.6388   -9.1833    4.8797 H         1 <0>         0.0654
     58 H23        -1.7207   -7.9453    3.0476 H         1 <0>         0.0941
     59 H24        -1.0454   -9.0825    1.8553 H         1 <0>         0.0533
     60 H25         2.6976    4.0936    0.0253 H         1 <0>         0.1691
     61 H26         8.0025    1.9085    0.0054 H         1 <0>         0.4268
     62 H27         7.1272    0.4744   -0.0083 H         1 <0>         0.4274
     63 H28         5.6469    8.4104    0.0755 H         1 <0>         0.1637
     64 H29         7.6856   10.1736    0.0867 H         1 <0>         0.1616
     65 H30         9.9083    8.7878    0.0608 H         1 <0>         0.2154
     66 H31         1.2623   -5.1205   -0.0059 H         1 <0>         0.4216
@<TRIPOS>BOND
     1    1    6 ar
     2    1    2 ar
     3    1   36 1
     4    2    3 ar
     5    2   37 1
     6    3    4 ar
     7    3   21 1
     8    4    5 ar
     9    4   38 1
    10    5    6 ar
    11    5    7 1
    12    6   39 1
    13    7   12 1
    14    7    8 1
    15    8    9 1
    16    8   40 1
    17    8   41 1
    18    9   10 1
    19    9   42 1
    20    9   43 1
    21   10   11 1
    22   10   13 1
    23   10   66 1
    24   11   12 1
    25   11   44 1
    26   11   45 1
    27   12   46 1
    28   12   47 1
    29   13   14 1
    30   13   48 1
    31   13   49 1
    32   14   15 1
    33   14   50 1
    34   14   51 1
    35   15   20 1
    36   15   16 1
    37   16   17 1
    38   16   52 1
    39   16   53 1
    40   17   18 1
    41   17   54 1
    42   17   55 1
    43   18   19 1
    44   19   20 1
    45   19   56 1
    46   19   57 1
    47   20   58 1
    48   20   59 1
    49   21   29 1
    50   21   22 2
    51   22   23 1
    52   22   60 1
    53   23   27 1
    54   23   24 2
    55   24   25 1
    56   25   26 2
    57   25   31 1
    58   26   27 1
    59   27   28 1
    60   28   29 2
    61   28   30 1
    62   30   61 1
    63   30   62 1
    64   31   35 1
    65   31   32 2
    66   32   33 1
    67   32   63 1
    68   33   34 2
    69   33   64 1
    70   34   35 1
    71   34   65 1
@<TRIPOS>MOLECULE
CHEMBL1093480
   39    43     0     0     0
SMALL
USER_CHARGES

@<TRIPOS>ATOM
      1 C1         -0.0167    1.3781    0.0096 C.ar      1 <0>        -0.1173
      2 C2          1.1709    2.0855    0.0021 C.ar      1 <0>        -0.1176
      3 C3          2.3773    1.4107   -0.0130 C.ar      1 <0>        -0.1077
      4 C4          2.3960    0.0285   -0.0201 C.ar      1 <0>        -0.0869
      5 C5          1.2084   -0.6789   -0.0117 C.ar      1 <0>        -0.1112
      6 C6          0.0021   -0.0041    0.0020 C.ar      1 <0>        -0.1195
      7 C7          3.7112   -0.7071   -0.0376 C.3       1 <0>        -0.0889
      8 C8          4.1714   -0.9633    1.3989 C.3       1 <0>         0.0881
      9 N1          5.4498   -1.6784    1.3820 N.pl3     1 <0>        -0.4489
     10 C9          5.4588   -3.0554    1.3698 C.2       1 <0>         0.3442
     11 C10         6.7145   -3.6582    1.3540 C.2       1 <0>        -0.2152
     12 C11         6.8584   -5.0464    1.3407 C.2       1 <0>         0.3721
     13 N2          7.8872   -5.8799    1.3252 N.2       1 <0>        -0.5044
     14 C12         7.4469   -7.1409    1.3182 C.2       1 <0>         0.3605
     15 N3          6.1253   -7.1432    1.3290 N.2       1 <0>        -0.2791
     16 N4          5.7127   -5.8069    1.3437 N.pl3     1 <0>        -0.3359
     17 C13         4.5093   -5.1843    1.3594 C.2       1 <0>         0.4290
     18 N5          4.3892   -3.8914    1.3711 N.2       1 <0>        -0.4800
     19 C14         8.3036   -8.3452    1.3010 C.2       1 <0>         0.0321
     20 C15         7.8690   -9.6332    1.2882 C.2       1 <0>        -0.1280
     21 C16         9.0177  -10.4490    1.2742 C.2       1 <0>        -0.2203
     22 C17        10.0856   -9.6271    1.2790 C.2       1 <0>         0.0022
     23 O1          9.6505   -8.3570    1.2894 O.3       1 <0>        -0.1522
     24 S1          7.8302   -2.2788    1.3568 S.3       1 <0>         0.2075
     25 C18         6.6036   -0.9802    1.3728 C.2       1 <0>         0.2477
     26 S2          6.8338    0.7163    1.3777 S.2       1 <0>        -0.3626
     27 H1         -0.9591    1.9053    0.0259 H         1 <0>         0.1227
     28 H2          1.1563    3.1654    0.0076 H         1 <0>         0.1244
     29 H3          3.3051    1.9634   -0.0196 H         1 <0>         0.1271
     30 H4          1.2231   -1.7588   -0.0176 H         1 <0>         0.1227
     31 H5         -0.9258   -0.5567    0.0082 H         1 <0>         0.1232
     32 H6          3.5884   -1.6586   -0.5549 H         1 <0>         0.0791
     33 H7          4.4573   -0.1052   -0.5563 H         1 <0>         0.0860
     34 H8          4.2941   -0.0118    1.9163 H         1 <0>         0.1199
     35 H9          3.4252   -1.5652    1.9176 H         1 <0>         0.1112
     36 H10         3.6137   -5.7879    1.3613 H         1 <0>         0.2361
     37 H11         6.8418   -9.9667    1.2890 H         1 <0>         0.1626
     38 H12         9.0384  -11.5287    1.2622 H         1 <0>         0.1616
     39 H13        11.1197   -9.9384    1.2712 H         1 <0>         0.2160
@<TRIPOS>BOND
     1    1    6 ar
     2    1    2 ar
     3    1   27 1
     4    2    3 ar
     5    2   28 1
     6    3    4 ar
     7    3   29 1
     8    4    5 ar
     9    4    7 1
    10    5    6 ar
    11    5   30 1
    12    6   31 1
    13    7    8 1
    14    7   32 1
    15    7   33 1
    16    8    9 1
    17    8   34 1
    18    8   35 1
    19    9   25 1
    20    9   10 1
    21   10   18 1
    22   10   11 2
    23   11   12 1
    24   11   24 1
    25   12   16 1
    26   12   13 2
    27   13   14 1
    28   14   15 2
    29   14   19 1
    30   15   16 1
    31   16   17 1
    32   17   18 2
    33   17   36 1
    34   19   23 1
    35   19   20 2
    36   20   21 1
    37   20   37 1
    38   21   22 2
    39   21   38 1
    40   22   23 1
    41   22   39 1
    42   24   25 1
    43   25   26 2
@<TRIPOS>MOLECULE
CHEMBL520036
   55    58     0     0     0
SMALL
USER_CHARGES

@<TRIPOS>ATOM
      1 C1         -0.2209    1.6523   -0.8070 C.3       1 <0>        -0.0738
      2 C2         -0.0893    0.1689   -0.5756 C.2       1 <0>         0.0918
      3 C3         -0.2434   -0.8283   -1.5461 C.2       1 <0>        -0.2643
      4 C4         -0.0487   -2.0257   -0.9485 C.2       1 <0>         0.1209
      5 N1          0.2209   -1.7916    0.3630 N.pl3     1 <0>        -0.3191
      6 N2          0.1938   -0.4055    0.5646 N.2       1 <0>        -0.2615
      7 C5          0.4826   -2.7585    1.3338 C.ar      1 <0>         0.5982
      8 N3          0.5922   -2.3870    2.5976 N.ar      1 <0>        -0.5196
      9 C6          0.8412   -3.2818    3.5528 C.ar      1 <0>         0.2706
     10 C7          0.9858   -4.6226    3.2025 C.ar      1 <0>        -0.2435
     11 C8          0.8630   -4.9723    1.8590 C.ar      1 <0>         0.4338
     12 N4          0.6089   -4.0228    0.9647 N.ar      1 <0>        -0.5281
     13 N5          0.9992   -6.2977    1.4603 N.am      1 <0>        -0.6541
     14 C9          0.9840   -6.6122    0.1499 C.2       1 <0>         0.5012
     15 O1          0.7588   -5.7543   -0.6770 O.2       1 <0>        -0.4678
     16 C10         1.2468   -8.0301   -0.2878 C.3       1 <0>        -0.1707
     17 C11         0.9632   -2.8565    4.9693 C.ar      1 <0>         0.1990
     18 C12         0.8106   -1.5141    5.3010 C.ar      1 <0>        -0.1703
     19 C13         0.9260   -1.1269    6.6276 C.ar      1 <0>        -0.0379
     20 C14         1.1906   -2.0958    7.5797 C.ar      1 <0>        -0.2186
     21 C15         1.3322   -3.4223    7.1806 C.ar      1 <0>         0.3995
     22 N6          1.2116   -3.7614    5.9081 N.ar      1 <0>        -0.5232
     23 N7          1.5985   -4.4013    8.1306 N.pl3     1 <0>        -0.6057
     24 C16         1.8612   -5.7795    7.6751 C.3       1 <0>         0.1251
     25 C17         3.0187   -6.4093    8.4637 C.3       1 <0>        -0.1686
     26 C18         4.1057   -5.3763    8.6822 C.3       1 <0>         0.0747
     27 O2          3.8671   -4.7161    9.9183 O.3       1 <0>        -0.3870
     28 C19         3.0392   -3.6123    9.9491 C.3       1 <0>         0.0546
     29 C20         1.6132   -4.0278    9.5329 C.3       1 <0>         0.0828
     30 C21        -0.1188   -3.3752   -1.6155 C.3       1 <0>        -0.0818
     31 H1          0.7495    2.0643   -1.0838 H         1 <0>         0.0816
     32 H2         -0.9349    1.8327   -1.6106 H         1 <0>         0.0821
     33 H3         -0.5726    2.1326    0.1061 H         1 <0>         0.0764
     34 H4         -0.4767   -0.6694   -2.5885 H         1 <0>         0.1586
     35 H5          1.1885   -5.3721    3.9532 H         1 <0>         0.1634
     36 H6          1.1053   -6.9958    2.1255 H         1 <0>         0.4253
     37 H7          0.3050   -8.5771   -0.3324 H         1 <0>         0.1001
     38 H8          1.7115   -8.0258   -1.2738 H         1 <0>         0.1014
     39 H9          1.9139   -8.5130    0.4262 H         1 <0>         0.0841
     40 H10         0.6049   -0.7819    4.5342 H         1 <0>         0.1487
     41 H11         0.8122   -0.0911    6.9117 H         1 <0>         0.1414
     42 H12         1.2865   -1.8259    8.6210 H         1 <0>         0.1373
     43 H13         0.9630   -6.3805    7.8165 H         1 <0>         0.0602
     44 H14         2.1169   -5.7636    6.6156 H         1 <0>         0.0917
     45 H15         2.6522   -6.7602    9.4284 H         1 <0>         0.0790
     46 H16         3.4251   -7.2506    7.9023 H         1 <0>         0.0871
     47 H17         5.0774   -5.8691    8.7127 H         1 <0>         0.0905
     48 H18         4.0875   -4.6493    7.8702 H         1 <0>         0.0529
     49 H19         3.0192   -3.2012   10.9584 H         1 <0>         0.1065
     50 H20         3.4135   -2.8580    9.2570 H         1 <0>         0.0449
     51 H21         0.9346   -3.1900    9.6927 H         1 <0>         0.0865
     52 H22         1.2919   -4.8756   10.1379 H         1 <0>         0.0883
     53 H23         0.8847   -3.6935   -1.8979 H         1 <0>         0.0849
     54 H24        -0.5489   -4.1002   -0.9245 H         1 <0>         0.0991
     55 H25        -0.7429   -3.3081   -2.5066 H         1 <0>         0.0715
@<TRIPOS>BOND
     1    1    2 1
     2    1   31 1
     3    1   32 1
     4    1   33 1
     5    2    6 2
     6    2    3 1
     7    3    4 2
     8    3   34 1
     9    4    5 1
    10    4   30 1
    11    5    6 1
    12    5    7 1
    13    7   12 ar
    14    7    8 ar
    15    8    9 ar
    16    9   10 ar
    17    9   17 1
    18   10   11 ar
    19   10   35 1
    20   11   12 ar
    21   11   13 1
    22   13   14 am
    23   13   36 1
    24   14   15 2
    25   14   16 1
    26   16   37 1
    27   16   38 1
    28   16   39 1
    29   17   22 ar
    30   17   18 ar
    31   18   19 ar
    32   18   40 1
    33   19   20 ar
    34   19   41 1
    35   20   21 ar
    36   20   42 1
    37   21   22 ar
    38   21   23 1
    39   23   29 1
    40   23   24 1
    41   24   25 1
    42   24   43 1
    43   24   44 1
    44   25   26 1
    45   25   45 1
    46   25   46 1
    47   26   27 1
    48   26   47 1
    49   26   48 1
    50   27   28 1
    51   28   29 1
    52   28   49 1
    53   28   50 1
    54   29   51 1
    55   29   52 1
    56   30   53 1
    57   30   54 1
    58   30   55 1
@<TRIPOS>MOLECULE
CHEMBL95229
   58    62     0     0     0
SMALL
USER_CHARGES

@<TRIPOS>ATOM
      1 C1         -0.0167    1.3781    0.0096 C.ar      1 <0>        -0.1083
      2 C2          1.1709    2.0855    0.0021 C.ar      1 <0>        -0.1223
      3 C3          2.3773    1.4107   -0.0130 C.ar      1 <0>        -0.0956
      4 C4          2.3960    0.0285   -0.0201 C.ar      1 <0>        -0.1003
      5 C5          1.2084   -0.6789   -0.0117 C.ar      1 <0>        -0.0956
      6 C6          0.0021   -0.0041    0.0020 C.ar      1 <0>        -0.1223
      7 C7          3.7112   -0.7071   -0.0376 C.3       1 <0>         0.1082
      8 O1          4.1410   -0.9464    1.3041 O.3       1 <0>        -0.3476
      9 C8          5.3041   -1.5968    1.4645 C.2       1 <0>         0.4601
     10 O2          5.9364   -1.9514    0.4979 O.2       1 <0>        -0.5068
     11 C9          5.8214   -1.8850    2.8503 C.3       1 <0>        -0.1136
     12 C10         7.1539   -2.6304    2.7526 C.3       1 <0>        -0.1102
     13 C11         7.6791   -2.9230    4.1595 C.3       1 <0>        -0.1066
     14 C12         9.0116   -3.6684    4.0618 C.3       1 <0>        -0.1343
     15 C13         9.5289   -3.9565    5.4476 C.2       1 <0>         0.5102
     16 O3          8.8943   -3.6008    6.4177 O.2       1 <0>        -0.4480
     17 N1         10.6967   -4.6097    5.6087 N.am      1 <0>        -0.6478
     18 C14        11.1709   -4.8738    6.8790 C.2       1 <0>         0.6223
     19 N2         10.4622   -4.4826    7.9043 N.2       1 <0>        -0.4668
     20 C15        10.8608   -4.7054    9.1799 C.ar      1 <0>         0.1651
     21 C16        10.0931   -4.2822   10.2684 C.ar      1 <0>        -0.0801
     22 C17        10.5255   -4.5243   11.5414 C.ar      1 <0>        -0.0639
     23 C18        11.7237   -5.1885   11.7750 C.ar      1 <0>        -0.0466
     24 C19        12.5029   -5.6182   10.7216 C.ar      1 <0>        -0.0387
     25 C20        12.0798   -5.3813    9.4155 C.ar      1 <0>        -0.0940
     26 C21        12.8630   -5.8129    8.2520 C.2       1 <0>         0.3564
     27 N3         12.3586   -5.5380    7.0086 N.pl3     1 <0>        -0.3616
     28 N4         13.2823   -6.0551    6.0903 N.2       1 <0>        -0.2891
     29 C22        14.2589   -6.6010    6.7907 C.2       1 <0>         0.3473
     30 N5         14.0055   -6.4448    8.0961 N.2       1 <0>        -0.4986
     31 C23        15.4497   -7.2678    6.2237 C.2       1 <0>         0.0386
     32 C24        15.7266   -7.4170    4.9011 C.2       1 <0>        -0.1335
     33 C25        16.9532   -8.1053    4.8183 C.2       1 <0>        -0.2194
     34 C26        17.3603   -8.3399    6.0813 C.2       1 <0>        -0.0014
     35 O4         16.4522   -7.8282    6.9277 O.3       1 <0>        -0.1526
     36 Cl1        12.2437   -5.4791   13.4056 Cl        1 <0>        -0.0495
     37 H1         -0.9591    1.9053    0.0259 H         1 <0>         0.1255
     38 H2          1.1563    3.1654    0.0076 H         1 <0>         0.1265
     39 H3          3.3051    1.9634   -0.0196 H         1 <0>         0.1243
     40 H4          1.2231   -1.7588   -0.0176 H         1 <0>         0.1243
     41 H5         -0.9258   -0.5567    0.0082 H         1 <0>         0.1264
     42 H6          3.5884   -1.6586   -0.5549 H         1 <0>         0.0776
     43 H7          4.4573   -0.1052   -0.5563 H         1 <0>         0.0776
     44 H8          5.9683   -0.9469    3.3857 H         1 <0>         0.1091
     45 H9          5.0993   -2.5004    3.3870 H         1 <0>         0.1091
     46 H10         7.0070   -3.5685    2.2173 H         1 <0>         0.0757
     47 H11         7.8760   -2.0150    2.2159 H         1 <0>         0.0757
     48 H12         7.8260   -1.9849    4.6949 H         1 <0>         0.0780
     49 H13         6.9570   -3.5383    4.6962 H         1 <0>         0.0780
     50 H14         8.8647   -4.6065    3.5265 H         1 <0>         0.1050
     51 H15         9.7337   -3.0530    3.5251 H         1 <0>         0.1050
     52 H16        11.2043   -4.8943    4.8326 H         1 <0>         0.4301
     53 H17         9.1598   -3.7644   10.1034 H         1 <0>         0.1576
     54 H18         9.9279   -4.1944   12.3783 H         1 <0>         0.1509
     55 H19        13.4335   -6.1337   10.9075 H         1 <0>         0.1542
     56 H20        15.1228   -7.0744    4.0738 H         1 <0>         0.1608
     57 H21        17.4694   -8.3912    3.9138 H         1 <0>         0.1606
     58 H22        18.2680   -8.8513    6.3656 H         1 <0>         0.2151
@<TRIPOS>BOND
     1    1    6 ar
     2    1    2 ar
     3    1   37 1
     4    2    3 ar
     5    2   38 1
     6    3    4 ar
     7    3   39 1
     8    4    5 ar
     9    4    7 1
    10    5    6 ar
    11    5   40 1
    12    6   41 1
    13    7    8 1
    14    7   42 1
    15    7   43 1
    16    8    9 1
    17    9   10 2
    18    9   11 1
    19   11   12 1
    20   11   44 1
    21   11   45 1
    22   12   13 1
    23   12   46 1
    24   12   47 1
    25   13   14 1
    26   13   48 1
    27   13   49 1
    28   14   15 1
    29   14   50 1
    30   14   51 1
    31   15   16 2
    32   15   17 am
    33   17   18 1
    34   17   52 1
    35   18   27 1
    36   18   19 2
    37   19   20 1
    38   20   25 ar
    39   20   21 ar
    40   21   22 ar
    41   21   53 1
    42   22   23 ar
    43   22   54 1
    44   23   24 ar
    45   23   36 1
    46   24   25 ar
    47   24   55 1
    48   25   26 1
    49   26   30 2
    50   26   27 1
    51   27   28 1
    52   28   29 2
    53   29   30 1
    54   29   31 1
    55   31   35 1
    56   31   32 2
    57   32   33 1
    58   32   56 1
    59   33   34 2
    60   33   57 1
    61   34   35 1
    62   34   58 1
@<TRIPOS>MOLECULE
CHEMBL1088253
   42    45     0     0     0
SMALL
USER_CHARGES

@<TRIPOS>ATOM
      1 C1          0.0180   -1.1779   -0.0044 C.1       1 <0>        -0.1449
      2 C2          0.0021   -0.0041    0.0020 C.1       1 <0>        -0.2282
      3 C3         -0.0179    1.4678    0.0101 C.3       1 <0>         0.2024
      4 N1          1.3565    1.9749   -0.0003 N.am      1 <0>        -0.5253
      5 C4          1.9937    2.1934    1.1787 C.2       1 <0>         0.4073
      6 N2          3.2190    2.6449    1.2117 N.2       1 <0>        -0.4712
      7 C5          3.8820    2.9048    0.0882 C.2       1 <0>         0.1049
      8 C6          3.3070    2.7102   -1.1776 C.2       1 <0>        -0.2457
      9 C7          1.9638    2.2094   -1.1785 C.2       1 <0>         0.5558
     10 O1          1.3799    2.0034   -2.2284 O.2       1 <0>        -0.5145
     11 C8          4.1540    3.0396   -2.3232 C.2       1 <0>        -0.0507
     12 C9          5.3962    3.4946   -2.0552 C.2       1 <0>        -0.1692
     13 S1          5.5079    3.5102   -0.2862 S.3       1 <0>         0.1478
     14 C10         6.4481    3.8969   -3.0433 C.3       1 <0>        -0.0372
     15 C11         6.0414    3.3680   -4.4262 C.3       1 <0>        -0.1152
     16 C12         4.5724    3.7218   -4.6752 C.3       1 <0>        -0.1229
     17 C13         3.6747    2.8841   -3.7638 C.3       1 <0>        -0.0589
     18 C14         1.2742    1.9106    2.4723 C.3       1 <0>        -0.0325
     19 C15         2.1821    2.2291    3.6322 C.ar      1 <0>        -0.0804
     20 C16         3.0164    1.2531    4.1446 C.ar      1 <0>        -0.0691
     21 C17         3.8498    1.5442    5.2079 C.ar      1 <0>        -0.1513
     22 C18         3.8489    2.8140    5.7600 C.ar      1 <0>         0.1037
     23 C19         3.0130    3.7907    5.2459 C.ar      1 <0>        -0.1513
     24 C20         2.1843    3.4987    4.1792 C.ar      1 <0>        -0.0694
     25 F1          4.6629    3.0996    6.7998 F         1 <0>        -0.1392
     26 H1          0.0322   -2.2278   -0.0102 H         1 <0>         0.2242
     27 H2         -0.5451    1.8289   -0.8729 H         1 <0>         0.1270
     28 H3         -0.5281    1.8193    0.9069 H         1 <0>         0.1216
     29 H4          6.5261    4.9836   -3.0743 H         1 <0>         0.0864
     30 H5          7.4072    3.4676   -2.7536 H         1 <0>         0.0844
     31 H6          6.6638    3.8308   -5.1921 H         1 <0>         0.0764
     32 H7          6.1668    2.2856   -4.4550 H         1 <0>         0.0691
     33 H8          4.4142    4.7798   -4.4662 H         1 <0>         0.0661
     34 H9          4.3222    3.5181   -5.7164 H         1 <0>         0.0717
     35 H10         3.7329    1.8358   -4.0570 H         1 <0>         0.0780
     36 H11         2.6449    3.2317   -3.8457 H         1 <0>         0.0854
     37 H12         0.3780    2.5281    2.5322 H         1 <0>         0.1169
     38 H13         0.9933    0.8580    2.5092 H         1 <0>         0.1156
     39 H14         3.0166    0.2626    3.7140 H         1 <0>         0.1295
     40 H15         4.5011    0.7815    5.6083 H         1 <0>         0.1358
     41 H16         3.0113    4.7814    5.6760 H         1 <0>         0.1362
     42 H17         1.5354    4.2617    3.7752 H         1 <0>         0.1308
@<TRIPOS>BOND
     1    1    2 3
     2    1   26 1
     3    2    3 1
     4    3    4 1
     5    3   27 1
     6    3   28 1
     7    4    9 am
     8    4    5 1
     9    5    6 2
    10    5   18 1
    11    6    7 1
    12    7   13 1
    13    7    8 2
    14    8    9 1
    15    8   11 1
    16    9   10 2
    17   11   17 1
    18   11   12 2
    19   12   13 1
    20   12   14 1
    21   14   15 1
    22   14   29 1
    23   14   30 1
    24   15   16 1
    25   15   31 1
    26   15   32 1
    27   16   17 1
    28   16   33 1
    29   16   34 1
    30   17   35 1
    31   17   36 1
    32   18   19 1
    33   18   37 1
    34   18   38 1
    35   19   24 ar
    36   19   20 ar
    37   20   21 ar
    38   20   39 1
    39   21   22 ar
    40   21   40 1
    41   22   23 ar
    42   22   25 1
    43   23   24 ar
    44   23   41 1
    45   24   42 1
@<TRIPOS>MOLECULE
CHEMBL246469
   69    74     0     0     0
SMALL
USER_CHARGES

@<TRIPOS>ATOM
      1 C1          2.3915    1.3295    1.1694 C.3       1 <0>         0.0302
      2 O1          2.5102   -0.0042    0.6702 O.3       1 <0>        -0.3847
      3 C2          1.8919   -0.2058   -0.6022 C.3       1 <0>         0.0617
      4 C3          2.0804   -1.6609   -1.0360 C.3       1 <0>         0.0632
      5 O2          1.3802   -2.5210   -0.1350 O.3       1 <0>        -0.3104
      6 C4          1.4459   -3.8571   -0.3802 C.ar      1 <0>         0.0744
      7 C5          2.1743   -4.3282   -1.4625 C.ar      1 <0>        -0.1587
      8 C6          2.2415   -5.6848   -1.7123 C.ar      1 <0>        -0.1595
      9 C7          1.5796   -6.5774   -0.8795 C.ar      1 <0>         0.1860
     10 C8          0.8506   -6.1049    0.2038 C.ar      1 <0>        -0.1590
     11 C9          0.7891   -4.7483    0.4554 C.ar      1 <0>        -0.0999
     12 N1          1.6469   -7.9521   -1.1322 N.pl3     1 <0>        -0.6338
     13 C10         1.0536   -8.9212   -0.1982 C.3       1 <0>         0.1283
     14 C11         0.1482   -9.8698   -0.9911 C.3       1 <0>         0.0415
     15 N2          0.9129  -10.4612   -2.0971 N.3       1 <0>        -0.5308
     16 C12         1.3577   -9.4328   -3.0472 C.3       1 <0>         0.0348
     17 C13         2.3073   -8.4660   -2.3417 C.3       1 <0>         0.1290
     18 C14         0.1338  -11.5045   -2.7771 C.3       1 <0>         0.0409
     19 C15         1.0382  -12.2638   -3.7500 C.3       1 <0>         0.1125
     20 N3          0.2612  -13.3043   -4.4282 N.pl3     1 <0>        -0.4507
     21 C16         0.1644  -14.6113   -4.0539 C.2       1 <0>         0.2320
     22 N4         -0.6094  -15.2509   -4.8838 N.2       1 <0>        -0.4329
     23 C17        -1.0521  -14.3973   -5.8338 C.2       1 <0>        -0.0257
     24 C18        -0.5073  -13.1402   -5.5532 C.2       1 <0>         0.2870
     25 N5         -0.7923  -12.0995   -6.3446 N.2       1 <0>        -0.5469
     26 C19        -1.5771  -12.2095   -7.3890 C.2       1 <0>         0.6698
     27 N6         -2.1583  -13.3915   -7.7427 N.pl3     1 <0>        -0.3644
     28 C20        -1.9222  -14.5202   -7.0006 C.2       1 <0>         0.3970
     29 N7         -2.5939  -15.5124   -7.5512 N.2       1 <0>        -0.5034
     30 C21        -3.2440  -15.0692   -8.6317 C.2       1 <0>         0.3098
     31 N8         -3.0154  -13.7795   -8.7803 N.2       1 <0>        -0.3081
     32 C22        -4.1063  -15.8950   -9.5134 C.ar      1 <0>         0.0038
     33 C23        -4.2948  -17.2480   -9.2383 C.ar      1 <0>        -0.0779
     34 C24        -5.0978  -18.0125  -10.0602 C.ar      1 <0>        -0.0932
     35 C25        -5.7155  -17.4388  -11.1566 C.ar      1 <0>        -0.1309
     36 C26        -5.5323  -16.0944  -11.4357 C.ar      1 <0>         0.0953
     37 C27        -4.7342  -15.3189  -10.6149 C.ar      1 <0>        -0.1149
     38 F1         -6.1380  -15.5392  -12.5081 F         1 <0>        -0.1344
     39 N9         -1.8235  -11.0926   -8.1552 N.pl3     1 <0>        -0.8073
     40 H1          1.3373    1.5834    1.2802 H         1 <0>         0.0429
     41 H2          2.8860    1.4002    2.1382 H         1 <0>         0.0881
     42 H3          2.8605    2.0221    0.4706 H         1 <0>         0.0417
     43 H4          0.8274    0.0163   -0.5282 H         1 <0>         0.0612
     44 H5          2.3506    0.4550   -1.3378 H         1 <0>         0.0709
     45 H6          1.6874   -1.7933   -2.0441 H         1 <0>         0.0751
     46 H7          3.1417   -1.9089   -1.0243 H         1 <0>         0.0693
     47 H8          2.6887   -3.6338   -2.1103 H         1 <0>         0.1256
     48 H9          2.8085   -6.0514   -2.5553 H         1 <0>         0.1242
     49 H10         0.3355   -6.7984    0.8519 H         1 <0>         0.1289
     50 H11         0.2261   -4.3810    1.3006 H         1 <0>         0.1299
     51 H12         1.8444   -9.4916    0.2889 H         1 <0>         0.0711
     52 H13         0.4640   -8.3934    0.5514 H         1 <0>         0.0875
     53 H14        -0.2130  -10.6613   -0.3345 H         1 <0>         0.0878
     54 H15        -0.6995   -9.3136   -1.3914 H         1 <0>         0.0407
     55 H16         1.8737   -9.9075   -3.8818 H         1 <0>         0.0868
     56 H17         0.4932   -8.8828   -3.4189 H         1 <0>         0.0417
     57 H18         2.5462   -7.6375   -3.0085 H         1 <0>         0.0853
     58 H19         3.2210   -8.9918   -2.0646 H         1 <0>         0.0696
     59 H20        -0.2680  -12.1977   -2.0382 H         1 <0>         0.0860
     60 H21        -0.6868  -11.0444   -3.3276 H         1 <0>         0.0448
     61 H22         1.4399  -11.5706   -4.4890 H         1 <0>         0.0974
     62 H23         1.8588  -12.7238   -3.1995 H         1 <0>         0.1136
     63 H24         0.6554  -15.0505   -3.1981 H         1 <0>         0.2289
     64 H25        -3.8128  -17.6981   -8.3830 H         1 <0>         0.1470
     65 H26        -5.2439  -19.0611   -9.8469 H         1 <0>         0.1439
     66 H27        -6.3424  -18.0410  -11.7975 H         1 <0>         0.1421
     67 H28        -4.5946  -14.2698  -10.8301 H         1 <0>         0.1448
     68 H29        -1.4190  -10.2433   -7.9187 H         1 <0>         0.4282
     69 H30        -2.4016  -11.1550   -8.9316 H         1 <0>         0.4253
@<TRIPOS>BOND
     1    1    2 1
     2    1   40 1
     3    1   41 1
     4    1   42 1
     5    2    3 1
     6    3    4 1
     7    3   43 1
     8    3   44 1
     9    4    5 1
    10    4   45 1
    11    4   46 1
    12    5    6 1
    13    6   11 ar
    14    6    7 ar
    15    7    8 ar
    16    7   47 1
    17    8    9 ar
    18    8   48 1
    19    9   10 ar
    20    9   12 1
    21   10   11 ar
    22   10   49 1
    23   11   50 1
    24   12   17 1
    25   12   13 1
    26   13   14 1
    27   13   51 1
    28   13   52 1
    29   14   15 1
    30   14   53 1
    31   14   54 1
    32   15   16 1
    33   15   18 1
    34   16   17 1
    35   16   55 1
    36   16   56 1
    37   17   57 1
    38   17   58 1
    39   18   19 1
    40   18   59 1
    41   18   60 1
    42   19   20 1
    43   19   61 1
    44   19   62 1
    45   20   24 1
    46   20   21 1
    47   21   22 2
    48   21   63 1
    49   22   23 1
    50   23   28 1
    51   23   24 2
    52   24   25 1
    53   25   26 2
    54   26   27 1
    55   26   39 1
    56   27   31 1
    57   27   28 1
    58   28   29 2
    59   29   30 1
    60   30   31 2
    61   30   32 1
    62   32   37 ar
    63   32   33 ar
    64   33   34 ar
    65   33   64 1
    66   34   35 ar
    67   34   65 1
    68   35   36 ar
    69   35   66 1
    70   36   37 ar
    71   36   38 1
    72   37   67 1
    73   39   68 1
    74   39   69 1
@<TRIPOS>MOLECULE
CHEMBL271202
   54    57     0     0     0
SMALL
USER_CHARGES

@<TRIPOS>ATOM
      1 C1         -0.0266    1.5052    0.0150 C.3       1 <0>        -0.0783
      2 C2         -0.0056   -0.0017    0.0058 C.2       1 <0>         0.1093
      3 C3         -0.0007   -0.8139   -1.1344 C.2       1 <0>        -0.2566
      4 C4          0.0202   -2.1036   -0.7279 C.2       1 <0>         0.1201
      5 N1          0.0283   -2.1063    0.6310 N.pl3     1 <0>        -0.3386
      6 N2          0.0170   -0.7732    1.0617 N.2       1 <0>        -0.2881
      7 C5          0.0493   -3.2358    1.4515 C.ar      1 <0>         0.4600
      8 C6          0.5578   -3.1581    2.7443 C.ar      1 <0>        -0.2479
      9 C7          0.5591   -4.3101    3.5277 C.ar      1 <0>         0.4320
     10 N3          0.0779   -5.4389    3.0187 N.ar      1 <0>        -0.5077
     11 C8         -0.3994   -5.4763    1.7811 C.ar      1 <0>         0.4676
     12 N4         -0.4207   -4.3966    1.0097 N.ar      1 <0>        -0.5172
     13 C9         -0.9257   -6.7516    1.2501 C.2       1 <0>         0.1265
     14 N5         -1.4384   -7.0185    0.0570 N.2       1 <0>        -0.4490
     15 C10        -1.8621   -8.2191   -0.2495 C.2       1 <0>         0.0208
     16 C11        -1.7795   -9.2223    0.6682 C.2       1 <0>        -0.1897
     17 S1         -1.0352   -8.3512    2.0416 S.3       1 <0>         0.1068
     18 N6          1.0582   -4.2789    4.8258 N.am      1 <0>        -0.6508
     19 C12         0.9622   -5.3700    5.6111 C.2       1 <0>         0.5056
     20 O1          0.5252   -6.4066    5.1581 O.2       1 <0>        -0.4450
     21 C13         1.3979   -5.3020    7.0521 C.3       1 <0>         0.0381
     22 N7          1.1944   -6.6107    7.6875 N.3       1 <0>        -0.5232
     23 C14        -0.2360   -6.9369    7.7753 C.3       1 <0>         0.0172
     24 C15        -0.4019   -8.3298    8.3869 C.3       1 <0>         0.0004
     25 N8          0.2062   -8.3533    9.7238 N.4       1 <0>        -0.3894
     26 C16         1.6394   -8.0499    9.6171 C.3       1 <0>        -0.0014
     27 C17         1.8222   -6.6547    9.0157 C.3       1 <0>         0.0268
     28 C18         0.0308   -9.6853   10.3178 C.3       1 <0>        -0.0458
     29 C19         0.0319   -3.3179   -1.6203 C.3       1 <0>        -0.1114
     30 H1          0.9958    1.8829    0.0063 H         1 <0>         0.0857
     31 H2         -0.5550    1.8665   -0.8672 H         1 <0>         0.0862
     32 H3         -0.5359    1.8559    0.9126 H         1 <0>         0.0778
     33 H4         -0.0117   -0.4709   -2.1584 H         1 <0>         0.1619
     34 H5          0.9429   -2.2263    3.1314 H         1 <0>         0.1655
     35 H6         -2.2765   -8.4133   -1.2278 H         1 <0>         0.1780
     36 H7         -2.0765  -10.2575    0.5873 H         1 <0>         0.2069
     37 H8          1.4752   -3.4718    5.1658 H         1 <0>         0.4272
     38 H9          2.4536   -5.0349    7.1003 H         1 <0>         0.1242
     39 H10         0.8083   -4.5487    7.5748 H         1 <0>         0.0837
     40 H11        -0.7388   -6.2016    8.4034 H         1 <0>         0.0587
     41 H12        -0.6740   -6.9234    6.7772 H         1 <0>         0.1394
     42 H13        -1.4626   -8.5679    8.4660 H         1 <0>         0.1366
     43 H14         0.0894   -9.0665    7.7513 H         1 <0>         0.1406
     44 H15         2.0919   -8.0805   10.6082 H         1 <0>         0.1380
     45 H16         2.1202   -8.7881    8.9752 H         1 <0>         0.1393
     46 H17         2.8859   -6.4353    8.9226 H         1 <0>         0.1264
     47 H18         1.3533   -5.9147    9.6643 H         1 <0>         0.0639
     48 H19         0.5130  -10.4312    9.6861 H         1 <0>         0.1236
     49 H20         0.4819   -9.7029   11.3099 H         1 <0>         0.1243
     50 H21        -1.0327   -9.9101   10.3983 H         1 <0>         0.1244
     51 H22         1.0623   -3.5963   -1.8416 H         1 <0>         0.0786
     52 H23        -0.4674   -4.1448   -1.1153 H         1 <0>         0.1076
     53 H24        -0.4907   -3.0909   -2.5496 H         1 <0>         0.0886
     54 H25        -0.2409   -7.6631   10.3085 H         1 <0>         0.4218
@<TRIPOS>BOND
     1    1    2 1
     2    1   30 1
     3    1   31 1
     4    1   32 1
     5    2    6 2
     6    2    3 1
     7    3    4 2
     8    3   33 1
     9    4    5 1
    10    4   29 1
    11    5    6 1
    12    5    7 1
    13    7   12 ar
    14    7    8 ar
    15    8    9 ar
    16    8   34 1
    17    9   10 ar
    18    9   18 1
    19   10   11 ar
    20   11   12 ar
    21   11   13 1
    22   13   17 1
    23   13   14 2
    24   14   15 1
    25   15   16 2
    26   15   35 1
    27   16   17 1
    28   16   36 1
    29   18   19 am
    30   18   37 1
    31   19   20 2
    32   19   21 1
    33   21   22 1
    34   21   38 1
    35   21   39 1
    36   22   27 1
    37   22   23 1
    38   23   24 1
    39   23   40 1
    40   23   41 1
    41   24   25 1
    42   24   42 1
    43   24   43 1
    44   25   26 1
    45   25   28 1
    46   25   54 1
    47   26   27 1
    48   26   44 1
    49   26   45 1
    50   27   46 1
    51   27   47 1
    52   28   48 1
    53   28   49 1
    54   28   50 1
    55   29   51 1
    56   29   52 1
    57   29   53 1
@<TRIPOS>MOLECULE
CHEMBL1092271
   30    33     0     0     0
SMALL
USER_CHARGES

@<TRIPOS>ATOM
      1 C1         -0.0157    1.3058    0.0092 C.2       1 <0>        -0.1437
      2 C2          0.0021   -0.0041    0.0020 C.2       1 <0>        -0.1867
      3 C3         -1.2926   -0.7753    0.0102 C.3       1 <0>         0.1128
      4 N1         -1.3176   -1.6997   -1.1260 N.pl3     1 <0>        -0.4463
      5 C4         -1.8329   -1.2809   -2.3323 C.2       1 <0>         0.3466
      6 C5         -1.8201   -2.2198   -3.3613 C.2       1 <0>        -0.2161
      7 C6         -2.3139   -1.9185   -4.6314 C.2       1 <0>         0.3723
      8 N2         -2.4313   -2.5825   -5.7710 N.2       1 <0>        -0.5049
      9 C7         -2.9890   -1.7970   -6.6963 C.2       1 <0>         0.3603
     10 N3         -3.2414   -0.6114   -6.1696 N.2       1 <0>        -0.2795
     11 N4         -2.8178   -0.6556   -4.8374 N.pl3     1 <0>        -0.3361
     12 C8         -2.8135    0.2301   -3.8119 C.2       1 <0>         0.4287
     13 N5         -2.3503   -0.0628   -2.6348 N.2       1 <0>        -0.4792
     14 C9         -3.2784   -2.1919   -8.0908 C.2       1 <0>         0.0323
     15 C10        -3.8402   -1.4014   -9.0435 C.2       1 <0>        -0.1282
     16 C11        -3.9302   -2.1791  -10.2149 C.2       1 <0>        -0.2203
     17 C12        -3.4241   -3.3934   -9.9224 C.2       1 <0>         0.0020
     18 O1         -3.0261   -3.3956   -8.6401 O.3       1 <0>        -0.1522
     19 S1         -1.0896   -3.6476   -2.6028 S.3       1 <0>         0.2067
     20 C13        -0.8306   -2.9488   -0.9793 C.2       1 <0>         0.2488
     21 S2         -0.1424   -3.6785    0.4081 S.2       1 <0>        -0.3640
     22 H1          0.9122    1.8585    0.0033 H         1 <0>         0.1082
     23 H2         -0.9582    1.8330    0.0166 H         1 <0>         0.1050
     24 H3          0.9446   -0.5313   -0.0098 H         1 <0>         0.1198
     25 H4         -1.3737   -1.3393    0.9394 H         1 <0>         0.1250
     26 H5         -2.1295   -0.0812   -0.0676 H         1 <0>         0.1123
     27 H6         -3.2104    1.2203   -3.9809 H         1 <0>         0.2360
     28 H7         -4.1567   -0.3756   -8.9252 H         1 <0>         0.1626
     29 H8         -4.3296   -1.8622  -11.1670 H         1 <0>         0.1615
     30 H9         -3.3473   -4.2251  -10.6070 H         1 <0>         0.2160
@<TRIPOS>BOND
     1    1    2 2
     2    1   22 1
     3    1   23 1
     4    2    3 1
     5    2   24 1
     6    3    4 1
     7    3   25 1
     8    3   26 1
     9    4   20 1
    10    4    5 1
    11    5   13 1
    12    5    6 2
    13    6    7 1
    14    6   19 1
    15    7   11 1
    16    7    8 2
    17    8    9 1
    18    9   10 2
    19    9   14 1
    20   10   11 1
    21   11   12 1
    22   12   13 2
    23   12   27 1
    24   14   18 1
    25   14   15 2
    26   15   16 1
    27   15   28 1
    28   16   17 2
    29   16   29 1
    30   17   18 1
    31   17   30 1
    32   19   20 1
    33   20   21 2
@<TRIPOS>MOLECULE
CHEMBL471976
   50    53     0     0     0
SMALL
USER_CHARGES

@<TRIPOS>ATOM
      1 C1         -0.0178    1.4608    0.0101 C.3       1 <0>         0.0875
      2 N1          0.0021   -0.0041    0.0020 N.pl3     1 <0>        -0.5911
      3 C2          0.0241   -0.7433    1.2666 C.3       1 <0>         0.1230
      4 C3         -1.4105   -1.0203    1.7205 C.3       1 <0>        -0.1287
      5 C4         -1.3875   -1.7923    3.0413 C.3       1 <0>        -0.0718
      6 C5         -2.8005   -2.0651    3.4884 C.ar      1 <0>        -0.1190
      7 C6         -3.4580   -1.1531    4.2932 C.ar      1 <0>        -0.0769
      8 C7         -4.7532   -1.4011    4.7048 C.ar      1 <0>        -0.1499
      9 C8         -5.3943   -2.5662    4.3095 C.ar      1 <0>         0.1227
     10 C9         -4.7326   -3.4794    3.5015 C.ar      1 <0>        -0.2063
     11 C10        -3.4393   -3.2243    3.0884 C.ar      1 <0>        -0.0755
     12 O1         -6.6683   -2.8126    4.7134 O.3       1 <0>        -0.3186
     13 C11        -7.2657   -4.0320    4.2681 C.3       1 <0>         0.0270
     14 C12         0.0000   -0.6913   -1.2033 C.2       1 <0>         0.4757
     15 C13        -0.0151    0.0079   -2.3950 C.2       1 <0>        -0.3193
     16 C14        -0.0168   -0.7184   -3.5978 C.2       1 <0>         0.3820
     17 N2         -0.0292   -0.3718   -4.8761 N.2       1 <0>        -0.5429
     18 C15        -0.0242   -1.4713   -5.6380 C.2       1 <0>         0.3563
     19 N3         -0.0085   -2.5407   -4.8638 N.2       1 <0>        -0.3348
     20 N4         -0.0034   -2.0891   -3.5380 N.pl3     1 <0>        -0.3791
     21 C16         0.0108   -2.7160   -2.3298 C.2       1 <0>         0.6821
     22 N5          0.0182   -2.0297   -1.2085 N.2       1 <0>        -0.5876
     23 N6          0.0242   -4.0897   -2.2814 N.pl3     1 <0>        -0.8069
     24 C17        -0.0346   -1.4867   -7.1159 C.2       1 <0>         0.0407
     25 C18        -0.0447   -0.3943   -7.9249 C.2       1 <0>        -0.1303
     26 C19        -0.0513   -0.8712   -9.2507 C.2       1 <0>        -0.2189
     27 C20        -0.0449   -2.2172   -9.1861 C.2       1 <0>        -0.0113
     28 O2         -0.0297   -2.5855   -7.8950 O.3       1 <0>        -0.1612
     29 H1          1.0048    1.8381    0.0023 H         1 <0>         0.0621
     30 H2         -0.5450    1.8219   -0.8730 H         1 <0>         0.0788
     31 H3         -0.5280    1.8123    0.9069 H         1 <0>         0.0781
     32 H4          0.5496   -1.6879    1.1262 H         1 <0>         0.0890
     33 H5          0.5371   -0.1514    2.0246 H         1 <0>         0.0789
     34 H6         -1.9359   -0.0757    1.8610 H         1 <0>         0.0642
     35 H7         -1.9235   -1.6122    0.9626 H         1 <0>         0.0682
     36 H8         -0.8620   -2.7369    2.9008 H         1 <0>         0.0737
     37 H9         -0.8745   -1.2004    3.7993 H         1 <0>         0.0730
     38 H10        -2.9584   -0.2463    4.6007 H         1 <0>         0.1286
     39 H11        -5.2661   -0.6888    5.3340 H         1 <0>         0.1304
     40 H12        -5.2296   -4.3871    3.1925 H         1 <0>         0.1270
     41 H13        -2.9253   -3.9329    2.4558 H         1 <0>         0.1235
     42 H14        -8.2799   -4.1044    4.6608 H         1 <0>         0.1011
     43 H15        -7.2962   -4.0450    3.1786 H         1 <0>         0.0553
     44 H16        -6.6766   -4.8767    4.6252 H         1 <0>         0.0557
     45 H17        -0.0257    1.0879   -2.4018 H         1 <0>         0.1593
     46 H18         0.0235   -4.6041   -3.1038 H         1 <0>         0.4250
     47 H19         0.0343   -4.5448   -1.4248 H         1 <0>         0.4278
     48 H20        -0.0476    0.6393   -7.6119 H         1 <0>         0.1624
     49 H21        -0.0602   -0.2715  -10.1488 H         1 <0>         0.1585
     50 H22        -0.0480   -2.8883  -10.0323 H         1 <0>         0.2122
@<TRIPOS>BOND
     1    1    2 1
     2    1   29 1
     3    1   30 1
     4    1   31 1
     5    2    3 1
     6    2   14 1
     7    3    4 1
     8    3   32 1
     9    3   33 1
    10    4    5 1
    11    4   34 1
    12    4   35 1
    13    5    6 1
    14    5   36 1
    15    5   37 1
    16    6   11 ar
    17    6    7 ar
    18    7    8 ar
    19    7   38 1
    20    8    9 ar
    21    8   39 1
    22    9   10 ar
    23    9   12 1
    24   10   11 ar
    25   10   40 1
    26   11   41 1
    27   12   13 1
    28   13   42 1
    29   13   43 1
    30   13   44 1
    31   14   22 1
    32   14   15 2
    33   15   16 1
    34   15   45 1
    35   16   20 1
    36   16   17 2
    37   17   18 1
    38   18   19 2
    39   18   24 1
    40   19   20 1
    41   20   21 1
    42   21   22 2
    43   21   23 1
    44   23   46 1
    45   23   47 1
    46   24   28 1
    47   24   25 2
    48   25   26 1
    49   25   48 1
    50   26   27 2
    51   26   49 1
    52   27   28 1
    53   27   50 1
@<TRIPOS>MOLECULE
CHEMBL1087820
   54    58     0     0     0
SMALL
USER_CHARGES

@<TRIPOS>ATOM
      1 C1         -0.0167    1.3793    0.0096 C.ar      1 <0>        -0.0831
      2 C2          1.1685    2.0929    0.0021 C.ar      1 <0>        -0.1315
      3 C3          2.3774    1.4279   -0.0130 C.ar      1 <0>        -0.0619
      4 C4          2.4029    0.0333   -0.0207 C.ar      1 <0>        -0.0963
      5 C5          1.2046   -0.6805   -0.0131 C.ar      1 <0>        -0.0588
      6 C6          0.0021   -0.0041    0.0020 C.ar      1 <0>        -0.1254
      7 C7          3.6972   -0.6866   -0.0375 C.ar      1 <0>         0.3587
      8 C8          3.8485   -1.9053    0.6416 C.ar      1 <0>        -0.3352
      9 C9          5.0995   -2.5526    0.5963 C.ar      1 <0>         0.2801
     10 N1          6.0850   -1.9878   -0.0854 N.ar      1 <0>        -0.5856
     11 C10         5.9016   -0.8324   -0.7162 C.ar      1 <0>         0.6080
     12 N2          4.7422   -0.1938   -0.7026 N.ar      1 <0>        -0.5581
     13 N3          6.9560   -0.2811   -1.4137 N.pl3     1 <0>        -0.8007
     14 C11         5.0091   -3.8087    1.3828 C.ar      1 <0>        -0.0121
     15 C12         5.9398   -4.8012    1.6568 C.ar      1 <0>        -0.1132
     16 C13         5.5832   -5.8911    2.4363 C.ar      1 <0>        -0.0741
     17 C14         4.3040   -5.9981    2.9448 C.ar      1 <0>        -0.0936
     18 C15         3.3631   -5.0152    2.6796 C.ar      1 <0>        -0.0218
     19 C16         3.7079   -3.9189    1.9009 C.ar      1 <0>        -0.1340
     20 C17         2.9384   -2.7304    1.4536 C.2       1 <0>         0.4550
     21 O1          1.7764   -2.4848    1.7094 O.2       1 <0>        -0.3893
     22 C18         7.3386   -4.6945    1.1063 C.3       1 <0>         0.0427
     23 N4          8.1250   -3.7772    1.9419 N.4       1 <0>        -0.3746
     24 C19         8.3170   -4.3521    3.2537 C.3       1 <0>        -0.0263
     25 C20         8.2694   -3.2725    4.3486 C.3       1 <0>        -0.1439
     26 C21         9.0084   -1.9820    3.9434 C.3       1 <0>        -0.1425
     27 C22        10.3200   -2.2399    3.2491 C.3       1 <0>        -0.1332
     28 C23        10.0823   -2.3100    1.7213 C.3       1 <0>        -0.1552
     29 C24         9.4561   -3.5737    1.3441 C.3       1 <0>        -0.0012
     30 H1         -0.9604    1.9042    0.0260 H         1 <0>         0.1313
     31 H2          1.1475    3.1726    0.0078 H         1 <0>         0.1323
     32 H3          3.3020    1.9860   -0.0192 H         1 <0>         0.1300
     33 H4          1.2180   -1.7604   -0.0194 H         1 <0>         0.1327
     34 H5         -0.9264   -0.5556    0.0083 H         1 <0>         0.1325
     35 H6          7.8124   -0.7360   -1.4376 H         1 <0>         0.4174
     36 H7          6.8412    0.5615   -1.8803 H         1 <0>         0.4270
     37 H8          6.3105   -6.6613    2.6467 H         1 <0>         0.1498
     38 H9          4.0354   -6.8506    3.5509 H         1 <0>         0.1548
     39 H10         2.3631   -5.1023    3.0782 H         1 <0>         0.1538
     40 H11         7.8060   -5.6792    1.1086 H         1 <0>         0.1426
     41 H12         7.2994   -4.3132    0.0860 H         1 <0>         0.1454
     42 H13         7.5322   -5.0851    3.4407 H         1 <0>         0.1275
     43 H14         9.2855   -4.8513    3.2864 H         1 <0>         0.1315
     44 H15         7.2277   -3.0303    4.5591 H         1 <0>         0.0859
     45 H16         8.7262   -3.6699    5.2550 H         1 <0>         0.1084
     46 H17         8.3668   -1.4062    3.2764 H         1 <0>         0.0609
     47 H18         9.1971   -1.3909    4.8396 H         1 <0>         0.0916
     48 H19        11.0155   -1.4309    3.4727 H         1 <0>         0.0901
     49 H20        10.7363   -3.1854    3.5967 H         1 <0>         0.0792
     50 H21         9.4341   -1.4863    1.4221 H         1 <0>         0.0850
     51 H22        11.0383   -2.2168    1.2060 H         1 <0>         0.1178
     52 H23        10.1064   -4.3912    1.6554 H         1 <0>         0.1288
     53 H24         9.3588   -3.6039    0.2589 H         1 <0>         0.1276
     54 H25         7.6468   -2.8923    2.0219 H         1 <0>         0.4231
@<TRIPOS>BOND
     1    1    6 ar
     2    1    2 ar
     3    1   30 1
     4    2    3 ar
     5    2   31 1
     6    3    4 ar
     7    3   32 1
     8    4    5 ar
     9    4    7 1
    10    5    6 ar
    11    5   33 1
    12    6   34 1
    13    7   12 ar
    14    7    8 ar
    15    8   20 1
    16    8    9 ar
    17    9   10 ar
    18    9   14 1
    19   10   11 ar
    20   11   12 ar
    21   11   13 1
    22   13   35 1
    23   13   36 1
    24   14   19 ar
    25   14   15 ar
    26   15   16 ar
    27   15   22 1
    28   16   17 ar
    29   16   37 1
    30   17   18 ar
    31   17   38 1
    32   18   19 ar
    33   18   39 1
    34   19   20 1
    35   20   21 2
    36   22   23 1
    37   22   40 1
    38   22   41 1
    39   23   29 1
    40   23   24 1
    41   23   54 1
    42   24   25 1
    43   24   42 1
    44   24   43 1
    45   25   26 1
    46   25   44 1
    47   25   45 1
    48   26   27 1
    49   26   46 1
    50   26   47 1
    51   27   28 1
    52   27   48 1
    53   27   49 1
    54   28   29 1
    55   28   50 1
    56   28   51 1
    57   29   52 1
    58   29   53 1
@<TRIPOS>MOLECULE
CHEMBL611917
   58    62     0     0     0
SMALL
USER_CHARGES

@<TRIPOS>ATOM
      1 C1         -0.0187    1.5258    0.0104 C.3       1 <0>        -0.1286
      2 C2          0.0021   -0.0041    0.0020 C.3       1 <0>        -0.0771
      3 C3          0.7995   -0.6105   -1.1703 C.3       1 <0>        -0.1081
      4 C4          0.4631   -2.0965   -1.3520 C.3       1 <0>        -0.0798
      5 C5          0.5897   -2.8135   -0.0293 C.2       1 <0>        -0.0920
      6 C6          0.8877   -2.1138    1.0688 C.2       1 <0>        -0.0863
      7 C7          1.0901   -0.6171    0.9030 C.3       1 <0>        -0.0611
      8 C8          2.0424   -0.3785   -0.2948 C.3       1 <0>        -0.1313
      9 C9          1.0141   -2.7624    2.3783 C.2       1 <0>         0.1008
     10 N1          0.8351   -4.0454    2.4883 N.2       1 <0>        -0.2084
     11 N2          0.9558   -4.6649    3.7390 N.pl3     1 <0>        -0.5434
     12 C10         0.7650   -6.0321    3.8562 C.ar      1 <0>         0.6473
     13 N3          0.4739   -6.7343    2.7678 N.ar      1 <0>        -0.5934
     14 C11         0.2824   -8.0468    2.8287 C.ar      1 <0>         0.5368
     15 C12         0.3943   -8.6856    4.0764 C.ar      1 <0>        -0.1385
     16 C13         0.7039   -7.9021    5.2004 C.ar      1 <0>         0.3504
     17 N4          0.8845   -6.5941    5.0483 N.ar      1 <0>        -0.6107
     18 N5          0.7505   -8.7675    6.2641 N.pl3     1 <0>        -0.4651
     19 C14         0.4785  -10.0164    5.7871 C.2       1 <0>         0.2696
     20 N6          0.2700   -9.9659    4.5038 N.2       1 <0>        -0.4592
     21 C15         1.0396   -8.4152    7.6564 C.3       1 <0>         0.3154
     22 C16         2.5662   -8.3947    7.8853 C.3       1 <0>         0.0769
     23 H1          2.9460   -7.3730    7.8777 H         1 <0>         0.0967
     24 C17         2.6959   -9.0221    9.3000 C.3       1 <0>         0.0472
     25 H2          2.5449   -8.2730   10.0773 H         1 <0>         0.0925
     26 C18         1.5319  -10.0445    9.2762 C.3       1 <0>         0.0516
     27 H3          1.8437  -10.9612    8.7756 H         1 <0>         0.0987
     28 O1          0.4837   -9.4023    8.5329 O.3       1 <0>        -0.3460
     29 C19         1.0648  -10.3508   10.7006 C.3       1 <0>         0.0780
     30 O2          0.0732  -11.3792   10.6659 O.3       1 <0>        -0.5625
     31 O3          3.9554   -9.6780    9.4591 O.3       1 <0>        -0.5427
     32 O4          3.2378   -9.1917    6.9076 O.3       1 <0>        -0.5330
     33 N7         -0.0211   -8.7703    1.6890 N.pl3     1 <0>        -0.8150
     34 C20        -1.3837   -0.6225    0.1971 C.3       1 <0>        -0.1451
     35 H4          1.0039    1.9031    0.0027 H         1 <0>         0.0593
     36 H5         -0.5459    1.8868   -0.8726 H         1 <0>         0.0598
     37 H6         -0.5289    1.8773    0.9072 H         1 <0>         0.0586
     38 H7          0.7743   -0.0283   -2.0914 H         1 <0>         0.0854
     39 H8         -0.5577   -2.1946   -1.7213 H         1 <0>         0.0851
     40 H9          1.1521   -2.5388   -2.0715 H         1 <0>         0.0815
     41 H10         0.4403   -3.8815    0.0285 H         1 <0>         0.1305
     42 H11         1.3099   -0.0788    1.8249 H         1 <0>         0.0904
     43 H12         2.8104   -1.1438   -0.4071 H         1 <0>         0.0703
     44 H13         2.4373    0.6359   -0.3492 H         1 <0>         0.0873
     45 H14         1.2560   -2.1742    3.2512 H         1 <0>         0.1141
     46 H15         1.1731   -4.1366    4.5230 H         1 <0>         0.4010
     47 H16         0.4423  -10.9143    6.3860 H         1 <0>         0.2138
     48 H17         0.6169   -7.4370    7.8856 H         1 <0>         0.1338
     49 H18         1.9136  -10.6845   11.2974 H         1 <0>         0.0634
     50 H19         0.6395   -9.4509   11.1449 H         1 <0>         0.0587
     51 H20        -0.2690  -11.6251   11.5363 H         1 <0>         0.3855
     52 H21         4.0803  -10.0844   10.3277 H         1 <0>         0.3901
     53 H22         4.1993   -9.2110    7.0088 H         1 <0>         0.3927
     54 H23        -0.0961   -8.3190    0.8336 H         1 <0>         0.4099
     55 H24        -0.1589   -9.7288    1.7454 H         1 <0>         0.4200
     56 H25        -1.9913   -0.4394   -0.6891 H         1 <0>         0.0542
     57 H26        -1.2835   -1.6966    0.3533 H         1 <0>         0.0678
     58 H27        -1.8635   -0.1722    1.0660 H         1 <0>         0.0522
@<TRIPOS>BOND
     1    1    2 1
     2    1   35 1
     3    1   36 1
     4    1   37 1
     5    2    7 1
     6    2    3 1
     7    2   34 1
     8    3    8 1
     9    3    4 1
    10    3   38 1
    11    4    5 1
    12    4   39 1
    13    4   40 1
    14    5    6 2
    15    5   41 1
    16    6    7 1
    17    6    9 1
    18    7    8 1
    19    7   42 1
    20    8   43 1
    21    8   44 1
    22    9   10 2
    23    9   45 1
    24   10   11 1
    25   11   12 1
    26   11   46 1
    27   12   17 ar
    28   12   13 ar
    29   13   14 ar
    30   14   15 ar
    31   14   33 1
    32   15   20 1
    33   15   16 ar
    34   16   17 ar
    35   16   18 1
    36   18   19 1
    37   18   21 1
    38   19   20 2
    39   19   47 1
    40   21   28 1
    41   21   22 1
    42   21   48 1
    43   22   23 1
    44   22   24 1
    45   22   32 1
    46   24   25 1
    47   24   26 1
    48   24   31 1
    49   26   27 1
    50   26   28 1
    51   26   29 1
    52   29   30 1
    53   29   49 1
    54   29   50 1
    55   30   51 1
    56   31   52 1
    57   32   53 1
    58   33   54 1
    59   33   55 1
    60   34   56 1
    61   34   57 1
    62   34   58 1
@<TRIPOS>MOLECULE
CHEMBL245645
   38    42     0     0     0
SMALL
USER_CHARGES

@<TRIPOS>ATOM
      1 C1         -0.0167    1.3781    0.0096 C.ar      1 <0>        -0.1065
      2 C2          1.1709    2.0855    0.0021 C.ar      1 <0>        -0.1224
      3 C3          2.3773    1.4107   -0.0130 C.ar      1 <0>        -0.0973
      4 C4          2.3960    0.0285   -0.0201 C.ar      1 <0>        -0.1246
      5 C5          1.2084   -0.6789   -0.0117 C.ar      1 <0>        -0.0892
      6 C6          0.0021   -0.0041    0.0020 C.ar      1 <0>        -0.1233
      7 C7          3.7112   -0.7071   -0.0376 C.3       1 <0>         0.1523
      8 N1          4.1518   -0.9524    1.3379 N.pl3     1 <0>        -0.4471
      9 C8          5.0027   -0.1727    2.0633 C.2       1 <0>         0.2312
     10 N2          5.1734   -0.6899    3.2465 N.2       1 <0>        -0.4328
     11 C9          4.4467   -1.8249    3.3496 C.2       1 <0>        -0.0262
     12 C10         3.7790   -2.0060    2.1342 C.2       1 <0>         0.2919
     13 N3          2.9764   -3.0635    1.9668 N.2       1 <0>        -0.5427
     14 C11         2.7835   -3.9516    2.9118 C.2       1 <0>         0.6695
     15 N4          3.3866   -3.8608    4.1314 N.pl3     1 <0>        -0.3627
     16 C12         4.2356   -2.8179    4.4000 C.2       1 <0>         0.3980
     17 N5          4.6798   -2.9655    5.6327 N.2       1 <0>        -0.5004
     18 C13         4.1603   -4.0770    6.1673 C.2       1 <0>         0.3449
     19 N6          3.3570   -4.6486    5.2891 N.2       1 <0>        -0.2958
     20 C14         4.4260   -4.5740    7.5337 C.2       1 <0>         0.0441
     21 C15         3.9093   -5.7034    8.0863 C.2       1 <0>        -0.1381
     22 C16         4.4263   -5.7885    9.3943 C.2       1 <0>        -0.2200
     23 C17         5.2248   -4.7179    9.5735 C.2       1 <0>        -0.0046
     24 O1          5.2268   -3.9895    8.4455 O.3       1 <0>        -0.1516
     25 N7          1.9422   -5.0129    2.6643 N.pl3     1 <0>        -0.8073
     26 H1         -0.9591    1.9053    0.0259 H         1 <0>         0.1245
     27 H2          1.1563    3.1654    0.0076 H         1 <0>         0.1262
     28 H3          3.3051    1.9634   -0.0196 H         1 <0>         0.1254
     29 H4          1.2231   -1.7588   -0.0176 H         1 <0>         0.1275
     30 H5         -0.9258   -0.5567    0.0082 H         1 <0>         0.1245
     31 H6          3.5884   -1.6586   -0.5549 H         1 <0>         0.1062
     32 H7          4.4573   -0.1052   -0.5563 H         1 <0>         0.1123
     33 H8          5.4660    0.7366    1.7099 H         1 <0>         0.2269
     34 H9          3.2329   -6.4005    7.6141 H         1 <0>         0.1601
     35 H10         4.2210   -6.5646   10.1167 H         1 <0>         0.1594
     36 H11         5.7753   -4.4866   10.4734 H         1 <0>         0.2140
     37 H12         1.5041   -5.0938    1.8026 H         1 <0>         0.4285
     38 H13         1.7874   -5.6797    3.3515 H         1 <0>         0.4252
@<TRIPOS>BOND
     1    1    6 ar
     2    1    2 ar
     3    1   26 1
     4    2    3 ar
     5    2   27 1
     6    3    4 ar
     7    3   28 1
     8    4    5 ar
     9    4    7 1
    10    5    6 ar
    11    5   29 1
    12    6   30 1
    13    7    8 1
    14    7   31 1
    15    7   32 1
    16    8   12 1
    17    8    9 1
    18    9   10 2
    19    9   33 1
    20   10   11 1
    21   11   16 1
    22   11   12 2
    23   12   13 1
    24   13   14 2
    25   14   15 1
    26   14   25 1
    27   15   19 1
    28   15   16 1
    29   16   17 2
    30   17   18 1
    31   18   19 2
    32   18   20 1
    33   20   24 1
    34   20   21 2
    35   21   22 1
    36   21   34 1
    37   22   23 2
    38   22   35 1
    39   23   24 1
    40   23   36 1
    41   25   37 1
    42   25   38 1
@<TRIPOS>MOLECULE
CHEMBL601514
   82    87     0     0     0
SMALL
USER_CHARGES

@<TRIPOS>ATOM
      1 C1         -4.0355   -2.4457    4.1499 C.3       1 <0>        -0.1397
      2 C2         -3.5336   -3.8043    3.6567 C.3       1 <0>        -0.1439
      3 C3         -2.7924   -3.6243    2.3570 C.2       1 <0>         0.5096
      4 O1         -2.6769   -2.5184    1.8729 O.2       1 <0>        -0.5159
      5 N1         -2.2578   -4.6925    1.7327 N.am      1 <0>        -0.7315
      6 C4         -1.5372   -4.5176    0.4692 C.3       1 <0>         0.1548
      7 H1         -1.0058   -3.5659    0.4628 H         1 <0>         0.1137
      8 C5         -0.5516   -5.6903    0.2404 C.3       1 <0>        -0.1343
      9 C6         -0.3648   -5.6848   -1.2972 C.3       1 <0>         0.1520
     10 H2          0.3556   -4.9215   -1.5912 H         1 <0>         0.1296
     11 C7         -1.7656   -5.3457   -1.8472 C.3       1 <0>         0.0616
     12 H3         -2.2969   -6.2615   -2.1062 H         1 <0>         0.0741
     13 C8         -2.5116   -4.6000   -0.7240 C.3       1 <0>         0.0607
     14 H4         -3.4057   -5.1541   -0.4383 H         1 <0>         0.0733
     15 O2         -2.8672   -3.2855   -1.1572 O.3       1 <0>        -0.5303
     16 O3         -1.6497   -4.5056   -2.9974 O.3       1 <0>        -0.5422
     17 N2          0.0675   -7.0037   -1.7659 N.pl3     1 <0>        -0.4649
     18 C9         -0.6040   -8.1798   -1.5996 C.2       1 <0>         0.2330
     19 N3          0.0666   -9.1544   -2.1405 N.2       1 <0>        -0.4461
     20 C10         1.2081   -8.6680   -2.6871 C.ar      1 <0>        -0.1466
     21 C11         1.2190   -7.2821   -2.4578 C.ar      1 <0>         0.3530
     22 N4          2.2414   -6.5597   -2.9045 N.ar      1 <0>        -0.6053
     23 C12         3.2367   -7.1349   -3.5599 C.ar      1 <0>         0.6264
     24 N5          3.2655   -8.4394   -3.8010 N.ar      1 <0>        -0.6264
     25 C13         2.2884   -9.2367   -3.3834 C.ar      1 <0>         0.5445
     26 N6          2.3264  -10.5956   -3.6410 N.pl3     1 <0>        -0.6869
     27 C14         3.4602  -11.1719   -4.3682 C.3       1 <0>         0.1436
     28 C15         3.2561  -12.6808   -4.5179 C.3       1 <0>        -0.0219
     29 C16         2.0519  -12.9412   -5.3858 C.ar      1 <0>        -0.0814
     30 C17         1.0464  -13.7784   -4.9397 C.ar      1 <0>        -0.1120
     31 C18        -0.0581  -14.0172   -5.7358 C.ar      1 <0>        -0.1127
     32 C19        -0.1575  -13.4185   -6.9778 C.ar      1 <0>        -0.1164
     33 C20         0.8476  -12.5806   -7.4235 C.ar      1 <0>        -0.1175
     34 C21         1.9501  -12.3384   -6.6256 C.ar      1 <0>        -0.1098
     35 C22         4.4769  -13.2919   -5.1562 C.ar      1 <0>        -0.0695
     36 C23         4.9773  -12.7674   -6.3332 C.ar      1 <0>        -0.1141
     37 C24         6.0971  -13.3279   -6.9186 C.ar      1 <0>        -0.1206
     38 C25         6.7167  -14.4127   -6.3268 C.ar      1 <0>        -0.1195
     39 C26         6.2168  -14.9366   -5.1493 C.ar      1 <0>        -0.1141
     40 C27         5.0995  -14.3734   -4.5616 C.ar      1 <0>        -0.1081
     41 N7          4.2841   -6.3483   -4.0101 N.pl3     1 <0>        -0.7037
     42 C28         5.3987   -6.9594   -4.7384 C.3       1 <0>         0.1471
     43 C29         6.4127   -5.8787   -5.1193 C.3       1 <0>        -0.0797
     44 C30         7.5592   -6.5074   -5.8684 C.2       1 <0>         0.0380
     45 C31         8.6411   -7.0890   -5.3164 C.2       1 <0>         0.0410
     46 N8          9.4265   -7.5253   -6.3491 N.pl3     1 <0>        -0.5087
     47 H5         10.2766   -7.9858   -6.2710 H         1 <0>         0.4684
     48 C32         8.7967   -7.1948   -7.4971 C.cat     1 <0>         0.3080
     49 N9          7.6783   -6.5908   -7.2018 N.pl3     1 <0>        -0.4735
     50 H6         -3.1870   -1.7793    4.3048 H         1 <0>         0.0622
     51 H7         -4.7054   -2.0140    3.4063 H         1 <0>         0.0623
     52 H8         -4.5717   -2.5758    5.0900 H         1 <0>         0.0636
     53 H9         -2.8637   -4.2359    4.4003 H         1 <0>         0.0940
     54 H10        -4.3822   -4.4707    3.5018 H         1 <0>         0.0934
     55 H11        -2.3502   -5.5770    2.1199 H         1 <0>         0.4020
     56 H12         0.3960   -5.5026    0.7453 H         1 <0>         0.0984
     57 H13        -0.9880   -6.6321    0.5731 H         1 <0>         0.0910
     58 H14        -3.4789   -3.2702   -1.9060 H         1 <0>         0.3738
     59 H15        -2.4977   -4.2570   -3.3900 H         1 <0>         0.3817
     60 H16        -1.5520   -8.2859   -1.0931 H         1 <0>         0.2168
     61 H17         1.6024  -11.1667   -3.3400 H         1 <0>         0.4217
     62 H18         3.5288  -10.7148   -5.3553 H         1 <0>         0.0709
     63 H19         4.3803  -10.9828   -3.8154 H         1 <0>         0.0733
     64 H20         3.0987  -13.1255   -3.5353 H         1 <0>         0.0952
     65 H21         1.1240  -14.2461   -3.9694 H         1 <0>         0.1228
     66 H22        -0.8434  -14.6719   -5.3875 H         1 <0>         0.1248
     67 H23        -1.0201  -13.6056   -7.6000 H         1 <0>         0.1229
     68 H24         0.7702  -12.1131   -8.3940 H         1 <0>         0.1206
     69 H25         2.7336  -11.6808   -6.9723 H         1 <0>         0.1165
     70 H26         4.4932  -11.9198   -6.7955 H         1 <0>         0.1195
     71 H27         6.4877  -12.9185   -7.8385 H         1 <0>         0.1192
     72 H28         7.5912  -14.8511   -6.7846 H         1 <0>         0.1223
     73 H29         6.7007  -15.7844   -4.6872 H         1 <0>         0.1252
     74 H30         4.7112  -14.7805   -3.6397 H         1 <0>         0.1242
     75 H31         4.2796   -5.3927   -3.8432 H         1 <0>         0.4173
     76 H32         5.8817   -7.7038   -4.1054 H         1 <0>         0.0760
     77 H33         5.0228   -7.4395   -5.6419 H         1 <0>         0.0686
     78 H34         5.9297   -5.1343   -5.7522 H         1 <0>         0.1044
     79 H35         6.7886   -5.3986   -4.2158 H         1 <0>         0.1205
     80 H36         8.8493   -7.1913   -4.2616 H         1 <0>         0.2277
     81 H37         9.1570   -7.4001   -8.4943 H         1 <0>         0.2667
     82 H38         7.0353   -6.2536   -7.8451 H         1 <0>         0.4654
@<TRIPOS>BOND
     1    1    2 1
     2    1   50 1
     3    1   51 1
     4    1   52 1
     5    2    3 1
     6    2   53 1
     7    2   54 1
     8    3    4 2
     9    3    5 am
    10    5    6 1
    11    5   55 1
    12    6    7 1
    13    6   13 1
    14    6    8 1
    15    8    9 1
    16    8   56 1
    17    8   57 1
    18    9   10 1
    19    9   11 1
    20    9   17 1
    21   11   12 1
    22   11   13 1
    23   11   16 1
    24   13   14 1
    25   13   15 1
    26   15   58 1
    27   16   59 1
    28   17   21 1
    29   17   18 1
    30   18   19 2
    31   18   60 1
    32   19   20 1
    33   20   25 ar
    34   20   21 ar
    35   21   22 ar
    36   22   23 ar
    37   23   24 ar
    38   23   41 1
    39   24   25 ar
    40   25   26 1
    41   26   27 1
    42   26   61 1
    43   27   28 1
    44   27   62 1
    45   27   63 1
    46   28   29 1
    47   28   35 1
    48   28   64 1
    49   29   34 ar
    50   29   30 ar
    51   30   31 ar
    52   30   65 1
    53   31   32 ar
    54   31   66 1
    55   32   33 ar
    56   32   67 1
    57   33   34 ar
    58   33   68 1
    59   34   69 1
    60   35   40 ar
    61   35   36 ar
    62   36   37 ar
    63   36   70 1
    64   37   38 ar
    65   37   71 1
    66   38   39 ar
    67   38   72 1
    68   39   40 ar
    69   39   73 1
    70   40   74 1
    71   41   42 1
    72   41   75 1
    73   42   43 1
    74   42   76 1
    75   42   77 1
    76   43   44 1
    77   43   78 1
    78   43   79 1
    79   44   49 1
    80   44   45 2
    81   45   46 1
    82   45   80 1
    83   46   47 1
    84   46   48 1
    85   48   49 2
    86   48   81 1
    87   49   82 1
@<TRIPOS>MOLECULE
CHEMBL97748
   45    49     0     0     0
SMALL
USER_CHARGES

@<TRIPOS>ATOM
      1 C1         -0.0162    1.3433    0.0094 C.2       1 <0>        -0.2195
      2 C2          1.3252    1.7744   -0.0011 C.2       1 <0>        -0.1340
      3 C3          2.0962    0.6548   -0.0144 C.2       1 <0>         0.0394
      4 O1          1.2797   -0.4166   -0.0124 O.3       1 <0>        -0.1526
      5 C4          0.0021   -0.0041    0.0020 C.2       1 <0>        -0.0020
      6 C5          3.5736    0.6192   -0.0292 C.2       1 <0>         0.3463
      7 N1          4.3225   -0.4904   -0.0477 N.2       1 <0>        -0.4992
      8 C6          5.5961   -0.1641   -0.0572 C.2       1 <0>         0.3564
      9 C7          6.8501   -0.9259   -0.0778 C.ar      1 <0>        -0.0949
     10 C8          6.8697   -2.3188   -0.0923 C.ar      1 <0>        -0.0385
     11 C9          8.0799   -2.9796   -0.1119 C.ar      1 <0>        -0.0474
     12 C10         9.2729   -2.2668   -0.1171 C.ar      1 <0>        -0.0640
     13 C11         9.2752   -0.9008   -0.1031 C.ar      1 <0>        -0.0806
     14 C12         8.0647   -0.2027   -0.0832 C.ar      1 <0>         0.1664
     15 N2          8.0298    1.1517   -0.0694 N.2       1 <0>        -0.4667
     16 C13         6.9047    1.8152   -0.0511 C.2       1 <0>         0.6232
     17 N3          5.6826    1.2028   -0.0446 N.pl3     1 <0>        -0.3612
     18 N4          4.3638    1.6765   -0.0320 N.2       1 <0>        -0.2888
     19 N5          6.9520    3.1958   -0.0375 N.am      1 <0>        -0.6484
     20 C14         8.1415    3.8294   -0.0431 C.2       1 <0>         0.5068
     21 O2          9.1702    3.1877   -0.0601 O.2       1 <0>        -0.4361
     22 C15         8.1931    5.3355   -0.0282 C.3       1 <0>        -0.0831
     23 C16         9.6302    5.7890   -0.0381 C.ar      1 <0>        -0.1385
     24 C17        10.3019    5.9789    1.1556 C.ar      1 <0>        -0.0506
     25 C18        11.6189    6.3944    1.1501 C.ar      1 <0>        -0.1976
     26 C19        12.2688    6.6217   -0.0564 C.ar      1 <0>         0.2221
     27 C20        11.5911    6.4300   -1.2537 C.ar      1 <0>        -0.1977
     28 C21        10.2759    6.0089   -1.2410 C.ar      1 <0>        -0.0507
     29 N6         13.6007    7.0425   -0.0656 N.pl3     1 <0>        -0.8782
     30 Cl1         8.1133   -4.7152   -0.1295 Cl        1 <0>        -0.0503
     31 H1         -0.8931    1.9736    0.0252 H         1 <0>         0.1604
     32 H2          1.6736    2.7966    0.0008 H         1 <0>         0.1609
     33 H3         -0.8667   -0.6456    0.0072 H         1 <0>         0.2149
     34 H4          5.9448   -2.8765   -0.0880 H         1 <0>         0.1540
     35 H5         10.2117   -2.8006   -0.1321 H         1 <0>         0.1504
     36 H6         10.2108   -0.3614   -0.1070 H         1 <0>         0.1571
     37 H7          6.1291    3.7092   -0.0239 H         1 <0>         0.4291
     38 H8          7.6830    5.7252   -0.9091 H         1 <0>         0.1083
     39 H9          7.7010    5.7070    0.8707 H         1 <0>         0.1083
     40 H10         9.7959    5.8023    2.0933 H         1 <0>         0.1194
     41 H11        12.1429    6.5429    2.0828 H         1 <0>         0.1203
     42 H12        12.0933    6.6061   -2.1934 H         1 <0>         0.1203
     43 H13         9.7497    5.8554   -2.1716 H         1 <0>         0.1194
     44 H14        14.0728    7.1763    0.7712 H         1 <0>         0.3986
     45 H15        14.0534    7.2009   -0.9086 H         1 <0>         0.3986
@<TRIPOS>BOND
     1    1    5 2
     2    1    2 1
     3    1   31 1
     4    2    3 2
     5    2   32 1
     6    3    4 1
     7    3    6 1
     8    4    5 1
     9    5   33 1
    10    6   18 2
    11    6    7 1
    12    7    8 2
    13    8   17 1
    14    8    9 1
    15    9   14 ar
    16    9   10 ar
    17   10   11 ar
    18   10   34 1
    19   11   12 ar
    20   11   30 1
    21   12   13 ar
    22   12   35 1
    23   13   14 ar
    24   13   36 1
    25   14   15 1
    26   15   16 2
    27   16   17 1
    28   16   19 1
    29   17   18 1
    30   19   20 am
    31   19   37 1
    32   20   21 2
    33   20   22 1
    34   22   23 1
    35   22   38 1
    36   22   39 1
    37   23   28 ar
    38   23   24 ar
    39   24   25 ar
    40   24   40 1
    41   25   26 ar
    42   25   41 1
    43   26   27 ar
    44   26   29 1
    45   27   28 ar
    46   27   42 1
    47   28   43 1
    48   29   44 1
    49   29   45 1
@<TRIPOS>MOLECULE
CHEMBL512133
   62    67     0     0     0
SMALL
USER_CHARGES

@<TRIPOS>ATOM
      1 C1         -0.0173    1.4248    0.0099 C.3       1 <0>         0.0291
      2 O1          0.0021   -0.0041    0.0020 O.3       1 <0>        -0.3895
      3 C2         -1.2953   -0.6030    0.0112 C.3       1 <0>         0.0592
      4 C3         -1.1538   -2.1264    0.0017 C.3       1 <0>         0.0607
      5 O2         -0.5312   -2.5546    1.2145 O.3       1 <0>        -0.3087
      6 C4         -0.3302   -3.8900    1.3668 C.ar      1 <0>         0.1630
      7 C5         -0.7198   -4.7654    0.3659 C.ar      1 <0>        -0.1999
      8 C6         -0.5143   -6.1224    0.5214 C.ar      1 <0>        -0.0494
      9 C7          0.0799   -6.6012    1.6728 C.ar      1 <0>        -0.1433
     10 C8          0.4713   -5.7282    2.6758 C.ar      1 <0>        -0.0522
     11 C9          0.2714   -4.3729    2.5249 C.ar      1 <0>        -0.1689
     12 C10         0.6779   -3.3886    3.5896 C.3       1 <0>         0.0608
     13 N1          1.6574   -3.9885    4.5000 N.4       1 <0>        -0.3785
     14 C11         1.1125   -5.2492    5.0265 C.3       1 <0>        -0.0131
     15 C12         1.1195   -6.2936    3.9138 C.3       1 <0>        -0.1029
     16 C13         1.9246   -3.0662    5.6117 C.3       1 <0>        -0.0291
     17 C14         3.0370   -3.6382    6.4928 C.3       1 <0>         0.1255
     18 N2          3.3035   -2.7183    7.6014 N.pl3     1 <0>        -0.3740
     19 C15         4.1996   -1.6918    7.5897 C.2       1 <0>         0.3758
     20 C16         4.1239   -1.0813    8.8508 C.2       1 <0>        -0.2584
     21 C17         3.1588   -1.7810    9.5971 C.2       1 <0>         0.1532
     22 N3          2.6767   -2.7389    8.8536 N.2       1 <0>        -0.2680
     23 C18         4.9941    0.0657    9.1122 C.2       1 <0>         0.4008
     24 N4          5.1875    0.8598   10.1448 N.2       1 <0>        -0.5066
     25 C19         6.1223    1.7700    9.8434 C.2       1 <0>         0.3627
     26 N5          6.5419    1.5700    8.6082 N.2       1 <0>        -0.2940
     27 N6          5.8308    0.4728    8.1057 N.pl3     1 <0>        -0.3786
     28 C20         5.8315   -0.1867    6.9110 C.2       1 <0>         0.7053
     29 N7          5.0536   -1.2142    6.6738 N.2       1 <0>        -0.5784
     30 N8          6.6812    0.2430    5.9185 N.pl3     1 <0>        -0.7948
     31 C21         6.6076    2.8309   10.7507 C.2       1 <0>         0.0285
     32 C22         7.5515    3.7635   10.4549 C.2       1 <0>        -0.1280
     33 C23         7.7009    4.5679   11.6020 C.2       1 <0>        -0.2203
     34 C24         6.8496    4.0915   12.5317 C.2       1 <0>         0.0047
     35 O3          6.1872    3.0454   12.0123 O.3       1 <0>        -0.1521
     36 H1          1.0053    1.8021    0.0021 H         1 <0>         0.0904
     37 H2         -0.5445    1.7859   -0.8732 H         1 <0>         0.0474
     38 H3         -0.5275    1.7763    0.9067 H         1 <0>         0.0444
     39 H4         -1.8320   -0.2936    0.9080 H         1 <0>         0.0636
     40 H5         -1.8490   -0.2840   -0.8718 H         1 <0>         0.0799
     41 H6         -2.1404   -2.5824   -0.0809 H         1 <0>         0.0864
     42 H7         -0.5414   -2.4291   -0.8477 H         1 <0>         0.0800
     43 H8         -1.1834   -4.3877   -0.5335 H         1 <0>         0.1409
     44 H9         -0.8181   -6.8081   -0.2558 H         1 <0>         0.1396
     45 H10         0.2403   -7.6625    1.7924 H         1 <0>         0.1372
     46 H11         1.1172   -2.5098    3.1176 H         1 <0>         0.1412
     47 H12        -0.2032   -3.0885    4.1568 H         1 <0>         0.1359
     48 H13         1.7263   -5.5940    5.8586 H         1 <0>         0.1393
     49 H14         0.0881   -5.0922    5.3645 H         1 <0>         0.1369
     50 H15         0.5749   -7.1817    4.2346 H         1 <0>         0.1291
     51 H16         2.1519   -6.5634    3.6913 H         1 <0>         0.1064
     52 H17         2.2358   -2.0998    5.2152 H         1 <0>         0.1387
     53 H18         1.0191   -2.9408    6.2054 H         1 <0>         0.1422
     54 H19         2.7257   -4.6046    6.8893 H         1 <0>         0.1219
     55 H20         3.9425   -3.7636    5.8991 H         1 <0>         0.1187
     56 H21         2.8635   -1.5602   10.6122 H         1 <0>         0.2092
     57 H22         7.2651    1.0016    6.0747 H         1 <0>         0.4311
     58 H23         6.6965   -0.2126    5.0623 H         1 <0>         0.4314
     59 H24         8.0842    3.8675    9.5212 H         1 <0>         0.1609
     60 H25         8.3711    5.4072   11.7150 H         1 <0>         0.1622
     61 H26         6.7189    4.4878   13.5278 H         1 <0>         0.2171
     62 H27         2.5140   -4.1738    3.9999 H         1 <0>         0.4271
@<TRIPOS>BOND
     1    1    2 1
     2    1   36 1
     3    1   37 1
     4    1   38 1
     5    2    3 1
     6    3    4 1
     7    3   39 1
     8    3   40 1
     9    4    5 1
    10    4   41 1
    11    4   42 1
    12    5    6 1
    13    6   11 ar
    14    6    7 ar
    15    7    8 ar
    16    7   43 1
    17    8    9 ar
    18    8   44 1
    19    9   10 ar
    20    9   45 1
    21   10   15 1
    22   10   11 ar
    23   11   12 1
    24   12   13 1
    25   12   46 1
    26   12   47 1
    27   13   14 1
    28   13   16 1
    29   13   62 1
    30   14   15 1
    31   14   48 1
    32   14   49 1
    33   15   50 1
    34   15   51 1
    35   16   17 1
    36   16   52 1
    37   16   53 1
    38   17   18 1
    39   17   54 1
    40   17   55 1
    41   18   22 1
    42   18   19 1
    43   19   29 1
    44   19   20 2
    45   20   21 1
    46   20   23 1
    47   21   22 2
    48   21   56 1
    49   23   27 1
    50   23   24 2
    51   24   25 1
    52   25   26 2
    53   25   31 1
    54   26   27 1
    55   27   28 1
    56   28   29 2
    57   28   30 1
    58   30   57 1
    59   30   58 1
    60   31   35 1
    61   31   32 2
    62   32   33 1
    63   32   59 1
    64   33   34 2
    65   33   60 1
    66   34   35 1
    67   34   61 1
@<TRIPOS>MOLECULE
CHEMBL259416
   34    37     0     0     0
SMALL
USER_CHARGES

@<TRIPOS>ATOM
      1 C1         -0.0167    1.3776    0.0096 C.ar      1 <0>        -0.1772
      2 C2          1.1849    2.0698    0.0019 C.ar      1 <0>        -0.0480
      3 C3          2.3651    1.3426   -0.0133 C.ar      1 <0>        -0.1748
      4 C4          2.3054   -0.0383   -0.0202 C.ar      1 <0>         0.1285
      5 N1          1.1443   -0.6632   -0.0129 N.ar      1 <0>        -0.4863
      6 C5          0.0021   -0.0041    0.0020 C.ar      1 <0>         0.1088
      7 C6          3.6964    2.0488   -0.0227 C.3       1 <0>         0.1896
      8 N2          4.1412    2.2707    1.3554 N.pl3     1 <0>        -0.3801
      9 C7          3.8617    3.3655    2.1193 C.ar      1 <0>         0.3956
     10 C8          4.4857    3.1547    3.3655 C.ar      1 <0>        -0.3146
     11 C9          5.1340    1.9041    3.2969 C.2       1 <0>         0.1203
     12 N3          4.9218    1.3924    2.1176 N.2       1 <0>        -0.2453
     13 C10         4.3535    4.1507    4.3589 C.ar      1 <0>         0.3849
     14 N4          3.6454    5.2421    4.0712 N.ar      1 <0>        -0.5701
     15 C11         3.0764    5.3954    2.8832 C.ar      1 <0>         0.6191
     16 N5          3.1748    4.4886    1.9250 N.ar      1 <0>        -0.5932
     17 N6          2.3516    6.5486    2.6362 N.pl3     1 <0>        -0.8110
     18 C12         4.9823    3.9863    5.6798 C.2       1 <0>        -0.0036
     19 C13         5.5145    4.9827    6.4423 C.2       1 <0>        -0.1286
     20 C14         6.0018    4.3784    7.6151 C.2       1 <0>        -0.2206
     21 C15         5.7474    3.0570    7.5151 C.2       1 <0>        -0.0078
     22 O1          5.1270    2.8250    6.3486 O.3       1 <0>        -0.1611
     23 H1         -0.9552    1.9117    0.0259 H         1 <0>         0.1378
     24 H2          1.2009    3.1496    0.0072 H         1 <0>         0.1385
     25 H3          3.2203   -0.6121   -0.0320 H         1 <0>         0.1583
     26 H4         -0.9294   -0.5505    0.0083 H         1 <0>         0.1584
     27 H5          4.4293    1.4355   -0.5468 H         1 <0>         0.1108
     28 H6          3.5953    3.0079   -0.5308 H         1 <0>         0.1082
     29 H7          5.7066    1.4460    4.0898 H         1 <0>         0.1985
     30 H8          2.2676    7.2256    3.3257 H         1 <0>         0.4193
     31 H9          1.9277    6.6796    1.7736 H         1 <0>         0.4176
     32 H10         5.5548    6.0329    6.1938 H         1 <0>         0.1579
     33 H11         6.4879    4.8777    8.4402 H         1 <0>         0.1573
     34 H12         5.9978    2.3102    8.2541 H         1 <0>         0.2129
@<TRIPOS>BOND
     1    1    6 ar
     2    1    2 ar
     3    1   23 1
     4    2    3 ar
     5    2   24 1
     6    3    4 ar
     7    3    7 1
     8    4    5 ar
     9    4   25 1
    10    5    6 ar
    11    6   26 1
    12    7    8 1
    13    7   27 1
    14    7   28 1
    15    8   12 1
    16    8    9 1
    17    9   16 ar
    18    9   10 ar
    19   10   11 1
    20   10   13 ar
    21   11   12 2
    22   11   29 1
    23   13   14 ar
    24   13   18 1
    25   14   15 ar
    26   15   16 ar
    27   15   17 1
    28   17   30 1
    29   17   31 1
    30   18   22 1
    31   18   19 2
    32   19   20 1
    33   19   32 1
    34   20   21 2
    35   20   33 1
    36   21   22 1
    37   21   34 1
@<TRIPOS>MOLECULE
CHEMBL303198
   31    34     0     0     0
SMALL
USER_CHARGES

@<TRIPOS>ATOM
      1 C1         -0.0162    1.3802    0.0108 C.ar      1 <0>        -0.0937
      2 C2          0.4577    0.7883    1.1681 C.ar      1 <0>        -0.1142
      3 C3          1.6624    0.1161    1.1593 C.ar      1 <0>        -0.0962
      4 C4          2.4035    0.0338   -0.0208 C.ar      1 <0>        -0.0358
      5 C5          1.9195    0.6331   -1.1849 C.ar      1 <0>        -0.0701
      6 C6          0.7133    1.3023   -1.1623 C.ar      1 <0>        -0.1149
      7 C7          3.6952   -0.6844   -0.0375 C.2       1 <0>         0.2374
      8 N1          4.8631   -0.1889   -0.4045 N.2       1 <0>        -0.2434
      9 N2          5.7773   -1.0886   -0.2959 N.2       1 <0>        -0.2329
     10 C8          5.2471   -2.2106    0.1465 C.2       1 <0>         0.1269
     11 N3          3.9049   -1.9782    0.3280 N.pl3     1 <0>        -0.3746
     12 C9          3.0984   -2.9998    0.7978 C.ar      1 <0>         0.0567
     13 C10         1.7376   -2.7942    0.9871 C.ar      1 <0>        -0.1063
     14 C11         0.9422   -3.8198    1.4560 C.ar      1 <0>        -0.0315
     15 C12         1.4932   -5.0616    1.7417 C.ar      1 <0>        -0.0832
     16 C13         2.8383   -5.2850    1.5604 C.ar      1 <0>        -0.0748
     17 C14         3.6611   -4.2554    1.0851 C.ar      1 <0>         0.1567
     18 N4          4.9881   -4.4784    0.9066 N.2       1 <0>        -0.5447
     19 C15         5.7857   -3.5368    0.4552 C.2       1 <0>         0.5154
     20 N5          7.1335   -3.7932    0.2863 N.pl3     1 <0>        -0.7996
     21 Cl1        -0.7574   -3.5553    1.6907 Cl        1 <0>        -0.0490
     22 H1         -0.9621    1.9014    0.0220 H         1 <0>         0.1327
     23 H2         -0.1165    0.8531    2.0805 H         1 <0>         0.1348
     24 H3          2.0314   -0.3451    2.0635 H         1 <0>         0.1259
     25 H4          2.4882    0.5734   -2.1011 H         1 <0>         0.1331
     26 H5          0.3376    1.7661   -2.0623 H         1 <0>         0.1355
     27 H6          1.3019   -1.8307    0.7674 H         1 <0>         0.1563
     28 H7          0.8618   -5.8571    2.1089 H         1 <0>         0.1506
     29 H8          3.2601   -6.2535    1.7851 H         1 <0>         0.1571
     30 H9          7.7234   -3.0943   -0.0369 H         1 <0>         0.4241
     31 H10         7.4894   -4.6720    0.4911 H         1 <0>         0.4217
@<TRIPOS>BOND
     1    1    6 ar
     2    1    2 ar
     3    1   22 1
     4    2    3 ar
     5    2   23 1
     6    3    4 ar
     7    3   24 1
     8    4    5 ar
     9    4    7 1
    10    5    6 ar
    11    5   25 1
    12    6   26 1
    13    7   11 1
    14    7    8 2
    15    8    9 1
    16    9   10 2
    17   10   19 1
    18   10   11 1
    19   11   12 1
    20   12   17 ar
    21   12   13 ar
    22   13   14 ar
    23   13   27 1
    24   14   15 ar
    25   14   21 1
    26   15   16 ar
    27   15   28 1
    28   16   17 ar
    29   16   29 1
    30   17   18 1
    31   18   19 2
    32   19   20 1
    33   20   30 1
    34   20   31 1
@<TRIPOS>MOLECULE
CHEMBL175476
   64    69     0     0     0
SMALL
USER_CHARGES

@<TRIPOS>ATOM
      1 C1          2.3994    1.4029    0.0054 C.ar      1 <0>        -0.0728
      2 C2          1.2013    2.0888    0.0039 C.ar      1 <0>        -0.1430
      3 C3         -0.0040    1.3876   -0.0062 C.ar      1 <0>        -0.0100
      4 C4          0.0052   -0.0057   -0.0147 C.ar      1 <0>        -0.1496
      5 C5          1.2130   -0.6867   -0.0131 C.ar      1 <0>         0.2108
      6 C6          2.4095    0.0211   -0.0030 C.ar      1 <0>        -0.1769
      7 N1          1.2276   -2.0836   -0.0212 N.pl3     1 <0>        -0.6290
      8 C7          2.4950   -2.8177   -0.1418 C.3       1 <0>         0.1083
      9 C8          2.6151   -3.7858    1.0417 C.3       1 <0>         0.0969
     10 N2          1.3634   -4.5476    1.1541 N.am      1 <0>        -0.6146
     11 C9          0.0959   -3.8135    1.2747 C.3       1 <0>         0.0909
     12 C10        -0.0237   -2.8453    0.0969 C.3       1 <0>         0.1062
     13 C11         1.3774   -5.8952    1.1464 C.2       1 <0>         0.5184
     14 O1          2.4295   -6.4901    1.0459 O.2       1 <0>        -0.5172
     15 C12         0.0858   -6.6629    1.2625 C.3       1 <0>         0.0372
     16 N3          0.3682   -8.1042    1.2294 N.3       1 <0>        -0.5207
     17 C13         0.8909   -8.5086   -0.0838 C.3       1 <0>         0.0135
     18 C14         1.2268  -10.0020   -0.0554 C.3       1 <0>         0.0653
     19 O2          0.0595  -10.7412    0.3138 O.3       1 <0>        -0.3862
     20 C15        -0.4759  -10.3733    1.5879 C.3       1 <0>         0.0640
     21 C16        -0.8291   -8.8837    1.5761 C.3       1 <0>         0.0178
     22 C17        -1.2912    2.1223   -0.0073 C.2       1 <0>         0.2511
     23 C18        -1.2966    3.5055   -0.0041 C.2       1 <0>        -0.2134
     24 C19        -2.5360    4.1706   -0.0058 C.2       1 <0>         0.3531
     25 N4         -2.8886    5.4466   -0.0038 N.2       1 <0>        -0.5234
     26 C20        -4.2219    5.5430   -0.0069 C.2       1 <0>         0.3543
     27 N5         -4.7487    4.3315   -0.0111 N.2       1 <0>        -0.3217
     28 N6         -3.6845    3.4206   -0.0104 N.pl3     1 <0>        -0.3616
     29 C21        -3.6091    2.0608   -0.0130 C.2       1 <0>         0.6530
     30 N7         -2.4494    1.4444   -0.0170 N.2       1 <0>        -0.5493
     31 N8         -4.7679    1.3199   -0.0172 N.pl3     1 <0>        -0.8082
     32 C22        -4.9872    6.8074   -0.0052 C.2       1 <0>         0.0359
     33 C23        -4.4585    8.0598   -0.0061 C.2       1 <0>        -0.1263
     34 C24        -5.5437    8.9584   -0.0038 C.2       1 <0>        -0.2189
     35 C25        -6.6695    8.2178   -0.0017 C.2       1 <0>        -0.0075
     36 O3         -6.3296    6.9190   -0.0084 O.3       1 <0>        -0.1608
     37 H1          3.3318    1.9479    0.0086 H         1 <0>         0.1301
     38 H2          1.1976    3.1688    0.0109 H         1 <0>         0.1296
     39 H3         -0.9256   -0.5536   -0.0221 H         1 <0>         0.1368
     40 H4          3.3496   -0.5106   -0.0021 H         1 <0>         0.1268
     41 H5          2.5052   -3.3790   -1.0761 H         1 <0>         0.0684
     42 H6          3.3279   -2.1148   -0.1253 H         1 <0>         0.0976
     43 H7          3.4460   -4.4705    0.8713 H         1 <0>         0.1041
     44 H8          2.7843   -3.2226    1.9594 H         1 <0>         0.0734
     45 H9         -0.7370   -4.5164    1.2583 H         1 <0>         0.0938
     46 H10         0.0857   -3.2522    2.2091 H         1 <0>         0.0780
     47 H11        -0.8537   -2.1607    0.2710 H         1 <0>         0.0992
     48 H12        -0.1969   -3.4087   -0.8200 H         1 <0>         0.0674
     49 H13        -0.4038   -6.4101    2.2030 H         1 <0>         0.1062
     50 H14        -0.5682   -6.4016    0.4306 H         1 <0>         0.0656
     51 H15         0.1382   -8.3194   -0.8491 H         1 <0>         0.0382
     52 H16         1.7914   -7.9372   -0.3088 H         1 <0>         0.1037
     53 H17         1.5609  -10.3188   -1.0434 H         1 <0>         0.0990
     54 H18         2.0177  -10.1834    0.6724 H         1 <0>         0.0628
     55 H19        -1.3733  -10.9586    1.7883 H         1 <0>         0.1003
     56 H20         0.2655  -10.5655    2.3635 H         1 <0>         0.0616
     57 H21        -1.1841   -8.5860    2.5628 H         1 <0>         0.0881
     58 H22        -1.6093   -8.7004    0.8373 H         1 <0>         0.0452
     59 H23        -0.3709    4.0618   -0.0001 H         1 <0>         0.1687
     60 H24        -5.6290    1.7664   -0.0184 H         1 <0>         0.4244
     61 H25        -4.7241    0.3509   -0.0191 H         1 <0>         0.4287
     62 H26        -3.4095    8.3164   -0.0079 H         1 <0>         0.1633
     63 H27        -5.4845   10.0368   -0.0038 H         1 <0>         0.1598
     64 H28        -7.6778    8.6048    0.0008 H         1 <0>         0.2135
@<TRIPOS>BOND
     1    1    6 ar
     2    1    2 ar
     3    1   37 1
     4    2    3 ar
     5    2   38 1
     6    3    4 ar
     7    3   22 1
     8    4    5 ar
     9    4   39 1
    10    5    6 ar
    11    5    7 1
    12    6   40 1
    13    7   12 1
    14    7    8 1
    15    8    9 1
    16    8   41 1
    17    8   42 1
    18    9   10 1
    19    9   43 1
    20    9   44 1
    21   10   11 1
    22   10   13 am
    23   11   12 1
    24   11   45 1
    25   11   46 1
    26   12   47 1
    27   12   48 1
    28   13   14 2
    29   13   15 1
    30   15   16 1
    31   15   49 1
    32   15   50 1
    33   16   21 1
    34   16   17 1
    35   17   18 1
    36   17   51 1
    37   17   52 1
    38   18   19 1
    39   18   53 1
    40   18   54 1
    41   19   20 1
    42   20   21 1
    43   20   55 1
    44   20   56 1
    45   21   57 1
    46   21   58 1
    47   22   30 1
    48   22   23 2
    49   23   24 1
    50   23   59 1
    51   24   28 1
    52   24   25 2
    53   25   26 1
    54   26   27 2
    55   26   32 1
    56   27   28 1
    57   28   29 1
    58   29   30 2
    59   29   31 1
    60   31   60 1
    61   31   61 1
    62   32   36 1
    63   32   33 2
    64   33   34 1
    65   33   62 1
    66   34   35 2
    67   34   63 1
    68   35   36 1
    69   35   64 1
@<TRIPOS>MOLECULE
CHEMBL258006
   35    38     0     0     0
SMALL
USER_CHARGES

@<TRIPOS>ATOM
      1 C1         -0.0167    1.3780    0.0096 C.ar      1 <0>        -0.1362
      2 C2          1.1706    2.0866    0.0021 C.ar      1 <0>        -0.0784
      3 C3          2.3773    1.4137   -0.0131 C.ar      1 <0>        -0.1626
      4 C4          2.3974    0.0291   -0.0207 C.ar      1 <0>         0.1237
      5 C5          1.2080   -0.6793   -0.0132 C.ar      1 <0>        -0.1593
      6 C6          0.0021   -0.0041    0.0020 C.ar      1 <0>        -0.0627
      7 C7          1.2281   -2.1862   -0.0220 C.3       1 <0>         0.1870
      8 N1          1.3684   -2.6807    1.3499 N.pl3     1 <0>        -0.3805
      9 C8          2.5447   -2.9302    1.9934 C.ar      1 <0>         0.3971
     10 C9          2.2071   -3.3877    3.2830 C.ar      1 <0>        -0.3212
     11 C10         0.7991   -3.3945    3.3638 C.2       1 <0>         0.1122
     12 N2          0.3178   -2.9731    2.2287 N.2       1 <0>        -0.2444
     13 C11         3.2536   -3.7229    4.1712 C.ar      1 <0>         0.3924
     14 N3          4.5102   -3.5908    3.7482 N.ar      1 <0>        -0.5742
     15 C12         4.7782   -3.1558    2.5243 C.ar      1 <0>         0.6165
     16 N4          3.8298   -2.8311    1.6612 N.ar      1 <0>        -0.5838
     17 N5          6.1013   -3.0365    2.1353 N.pl3     1 <0>        -0.8119
     18 C13         2.9627   -4.2058    5.5310 C.2       1 <0>        -0.1808
     19 C14         3.6468   -5.1385    6.2899 C.2       1 <0>        -0.0829
     20 C15         3.1289   -5.3873    7.5420 C.2       1 <0>        -0.1789
     21 C16         2.0175   -4.7233    7.9374 C.2       1 <0>        -0.2319
     22 S1          1.6418   -3.7354    6.6317 S.3       1 <0>         0.2188
     23 F1          3.5766   -0.6299   -0.0360 F         1 <0>        -0.1202
     24 H1         -0.9594    1.9048    0.0260 H         1 <0>         0.1329
     25 H2          1.1547    3.1665    0.0077 H         1 <0>         0.1345
     26 H3          3.3046    1.9675   -0.0193 H         1 <0>         0.1364
     27 H4         -0.9259   -0.5565    0.0083 H         1 <0>         0.1361
     28 H5          0.2975   -2.5595   -0.4494 H         1 <0>         0.1112
     29 H6          2.0689   -2.5348   -0.6216 H         1 <0>         0.1077
     30 H7          0.2179   -3.6939    4.2234 H         1 <0>         0.1947
     31 H8          6.8115   -3.2692    2.7536 H         1 <0>         0.4177
     32 H9          6.3182   -2.7201    1.2444 H         1 <0>         0.4173
     33 H10         4.5305   -5.6400    5.9239 H         1 <0>         0.1470
     34 H11         3.6026   -6.1021    8.1985 H         1 <0>         0.1375
     35 H12         1.4949   -4.8060    8.8789 H         1 <0>         0.1894
@<TRIPOS>BOND
     1    1    6 ar
     2    1    2 ar
     3    1   24 1
     4    2    3 ar
     5    2   25 1
     6    3    4 ar
     7    3   26 1
     8    4    5 ar
     9    4   23 1
    10    5    6 ar
    11    5    7 1
    12    6   27 1
    13    7    8 1
    14    7   28 1
    15    7   29 1
    16    8   12 1
    17    8    9 1
    18    9   16 ar
    19    9   10 ar
    20   10   11 1
    21   10   13 ar
    22   11   12 2
    23   11   30 1
    24   13   14 ar
    25   13   18 1
    26   14   15 ar
    27   15   16 ar
    28   15   17 1
    29   17   31 1
    30   17   32 1
    31   18   22 1
    32   18   19 2
    33   19   20 1
    34   19   33 1
    35   20   21 2
    36   20   34 1
    37   21   22 1
    38   21   35 1
@<TRIPOS>MOLECULE
CHEMBL257757
   35    38     0     0     0
SMALL
USER_CHARGES

@<TRIPOS>ATOM
      1 C1         -0.0167    1.3777    0.0096 C.ar      1 <0>        -0.1108
      2 C2          1.1710    2.0855    0.0021 C.ar      1 <0>        -0.0880
      3 C3          2.3777    1.4116   -0.0130 C.ar      1 <0>        -0.1092
      4 C4          2.3977    0.0294   -0.0210 C.ar      1 <0>        -0.0822
      5 C5          1.2098   -0.6793   -0.0135 C.ar      1 <0>        -0.0392
      6 C6          0.0021   -0.0041    0.0020 C.ar      1 <0>        -0.0994
      7 Cl1         1.2341   -2.4151   -0.0242 Cl        1 <0>        -0.0649
      8 C7          3.6718    2.1839   -0.0212 C.3       1 <0>         0.1852
      9 N1          4.1043    2.4267    1.3572 N.pl3     1 <0>        -0.3795
     10 C8          3.7698    3.5055    2.1219 C.ar      1 <0>         0.3965
     11 C9          4.4030    3.3254    3.3683 C.ar      1 <0>        -0.3144
     12 C10         5.1134    2.1090    3.2991 C.2       1 <0>         0.1199
     13 N2          4.9277    1.5882    2.1192 N.2       1 <0>        -0.2453
     14 C11         4.2204    4.3127    4.3623 C.ar      1 <0>         0.3846
     15 N3          3.4585    5.3674    4.0751 N.ar      1 <0>        -0.5701
     16 C12         2.8830    5.4927    2.8869 C.ar      1 <0>         0.6190
     17 N4          3.0273    4.5928    1.9281 N.ar      1 <0>        -0.5922
     18 N5          2.1013    6.6082    2.6405 N.pl3     1 <0>        -0.8111
     19 C13         4.8561    4.1791    5.6834 C.2       1 <0>        -0.0032
     20 C14         5.3372    5.2003    6.4470 C.2       1 <0>        -0.1290
     21 C15         5.8537    4.6203    7.6196 C.2       1 <0>        -0.2206
     22 C16         5.6661    3.2879    7.5184 C.2       1 <0>        -0.0081
     23 O1          5.0587    3.0260    6.3514 O.3       1 <0>        -0.1611
     24 H1         -0.9592    1.9048    0.0259 H         1 <0>         0.1350
     25 H2          1.1559    3.1654    0.0076 H         1 <0>         0.1340
     26 H3          3.3407   -0.4970   -0.0336 H         1 <0>         0.1371
     27 H4         -0.9257   -0.5568    0.0079 H         1 <0>         0.1355
     28 H5          4.4349    1.6086   -0.5454 H         1 <0>         0.1091
     29 H6          3.5229    3.1370   -0.5286 H         1 <0>         0.1097
     30 H7          5.7079    1.6796    4.0918 H         1 <0>         0.1980
     31 H8          1.9830    7.2796    3.3305 H         1 <0>         0.4192
     32 H9          1.6718    6.7185    1.7778 H         1 <0>         0.4177
     33 H10         5.3247    6.2515    6.1993 H         1 <0>         0.1578
     34 H11         6.3137    5.1429    8.4452 H         1 <0>         0.1572
     35 H12         5.9533    2.5541    8.2569 H         1 <0>         0.2127
@<TRIPOS>BOND
     1    1    6 ar
     2    1    2 ar
     3    1   24 1
     4    2    3 ar
     5    2   25 1
     6    3    4 ar
     7    3    8 1
     8    4    5 ar
     9    4   26 1
    10    5    6 ar
    11    5    7 1
    12    6   27 1
    13    8    9 1
    14    8   28 1
    15    8   29 1
    16    9   13 1
    17    9   10 1
    18   10   17 ar
    19   10   11 ar
    20   11   12 1
    21   11   14 ar
    22   12   13 2
    23   12   30 1
    24   14   15 ar
    25   14   19 1
    26   15   16 ar
    27   16   17 ar
    28   16   18 1
    29   18   31 1
    30   18   32 1
    31   19   23 1
    32   19   20 2
    33   20   21 1
    34   20   33 1
    35   21   22 2
    36   21   34 1
    37   22   23 1
    38   22   35 1
@<TRIPOS>MOLECULE
CHEMBL359463
   43    46     0     0     0
SMALL
USER_CHARGES

@<TRIPOS>ATOM
      1 C1         -0.0187    1.5258    0.0104 C.3       1 <0>        -0.1439
      2 C2          0.0021   -0.0041    0.0020 C.3       1 <0>         0.2556
      3 C3          0.7421   -0.5109    1.2415 C.3       1 <0>        -0.1065
      4 C4          0.0367   -0.0249    2.4814 C.ar      1 <0>        -0.0319
      5 C5          0.3750    1.1884    3.0609 C.ar      1 <0>        -0.1696
      6 C6         -0.2937    1.6015    4.1977 C.ar      1 <0>         0.0992
      7 N1         -1.2423    0.8563    4.7305 N.ar      1 <0>        -0.4866
      8 C7         -1.5901   -0.3027    4.2066 C.ar      1 <0>         0.1008
      9 C8         -0.9699   -0.7778    3.0665 C.ar      1 <0>        -0.1574
     10 C9          0.6911   -0.4788   -1.2091 C.1       1 <0>        -0.1349
     11 C10         1.2406   -0.8574   -2.1750 C.1       1 <0>        -0.1016
     12 C11         1.9108   -1.3192   -3.3531 C.2       1 <0>         0.2345
     13 C12         2.4096   -0.4124   -4.2417 C.2       1 <0>         0.0233
     14 N2          3.0480   -0.8451   -5.3639 N.pl3     1 <0>        -0.2404
     15 C13         3.1822   -2.1875   -5.5879 C.2       1 <0>         0.2075
     16 C14         2.6505   -3.0981   -4.6399 C.2       1 <0>         0.4817
     17 N3          2.0441   -2.6399   -3.5646 N.2       1 <0>        -0.5099
     18 N4          2.7718   -4.4639   -4.8422 N.pl3     1 <0>        -0.8048
     19 N5          3.8302   -2.3409   -6.7312 N.2       1 <0>        -0.4939
     20 C15         4.1172   -1.1459   -7.2496 C.2       1 <0>         0.3291
     21 N6          3.6571   -0.1993   -6.4460 N.2       1 <0>        -0.2819
     22 C16         4.8353   -0.9147   -8.5205 C.2       1 <0>         0.0432
     23 C17         5.1384    0.2972   -9.0565 C.2       1 <0>        -0.1380
     24 C18         5.8206    0.0479  -10.2639 C.2       1 <0>        -0.2180
     25 C19         5.8994   -1.2900  -10.4037 C.2       1 <0>        -0.0061
     26 O1          5.3083   -1.8684   -9.3459 O.3       1 <0>        -0.1541
     27 O2         -1.3386   -0.4987    0.0122 O.3       1 <0>        -0.5365
     28 H1          1.0039    1.9031    0.0027 H         1 <0>         0.0782
     29 H2         -0.5459    1.8868   -0.8726 H         1 <0>         0.0717
     30 H3         -0.5289    1.8773    0.9072 H         1 <0>         0.0801
     31 H4          0.7568   -1.6008    1.2356 H         1 <0>         0.0882
     32 H5          1.7647   -0.1336    1.2338 H         1 <0>         0.0946
     33 H6          1.1514    1.8028    2.6296 H         1 <0>         0.1351
     34 H7         -0.0362    2.5453    4.6551 H         1 <0>         0.1559
     35 H8         -2.3716   -0.8856    4.6714 H         1 <0>         0.1558
     36 H9         -1.2626   -1.7255    2.6393 H         1 <0>         0.1334
     37 H10         2.2983    0.6456   -4.0558 H         1 <0>         0.1863
     38 H11         3.2213   -4.7989   -5.6338 H         1 <0>         0.4250
     39 H12         2.4072   -5.0848   -4.1922 H         1 <0>         0.4196
     40 H13         4.9017    1.2643   -8.6380 H         1 <0>         0.1604
     41 H14         6.2070    0.7889  -10.9480 H         1 <0>         0.1598
     42 H15         6.3648   -1.8107  -11.2275 H         1 <0>         0.2144
     43 H16        -1.4018   -1.4636    0.0076 H         1 <0>         0.3825
@<TRIPOS>BOND
     1    1    2 1
     2    1   28 1
     3    1   29 1
     4    1   30 1
     5    2    3 1
     6    2   10 1
     7    2   27 1
     8    3    4 1
     9    3   31 1
    10    3   32 1
    11    4    9 ar
    12    4    5 ar
    13    5    6 ar
    14    5   33 1
    15    6    7 ar
    16    6   34 1
    17    7    8 ar
    18    8    9 ar
    19    8   35 1
    20    9   36 1
    21   10   11 3
    22   11   12 1
    23   12   17 1
    24   12   13 2
    25   13   14 1
    26   13   37 1
    27   14   21 1
    28   14   15 1
    29   15   16 1
    30   15   19 2
    31   16   17 2
    32   16   18 1
    33   18   38 1
    34   18   39 1
    35   19   20 1
    36   20   21 2
    37   20   22 1
    38   22   26 1
    39   22   23 2
    40   23   24 1
    41   23   40 1
    42   24   25 2
    43   24   41 1
    44   25   26 1
    45   25   42 1
    46   27   43 1
@<TRIPOS>MOLECULE
CHEMBL259736
   33    35     0     0     0
SMALL
USER_CHARGES

@<TRIPOS>ATOM
      1 C1         -0.0167    1.3792    0.0096 C.ar      1 <0>        -0.0935
      2 C2          1.1685    2.0928    0.0021 C.ar      1 <0>        -0.1257
      3 C3          2.3774    1.4278   -0.0130 C.ar      1 <0>        -0.0640
      4 C4          2.4029    0.0333   -0.0207 C.ar      1 <0>        -0.0738
      5 C5          1.2046   -0.6805   -0.0131 C.ar      1 <0>        -0.0868
      6 C6          0.0021   -0.0041    0.0020 C.ar      1 <0>        -0.1199
      7 C7          3.6971   -0.6866   -0.0375 C.ar      1 <0>         0.3245
      8 C8          3.8456   -1.9116    0.6464 C.ar      1 <0>        -0.1912
      9 C9          5.1019   -2.5514    0.5948 C.ar      1 <0>         0.3245
     10 N1          6.0862   -1.9783   -0.0907 N.ar      1 <0>        -0.5637
     11 C10         5.9006   -0.8262   -0.7180 C.ar      1 <0>         0.5982
     12 N2          4.7371   -0.1924   -0.7017 N.ar      1 <0>        -0.5637
     13 N3          6.9537   -0.2699   -1.4172 N.pl3     1 <0>        -0.8059
     14 C11         5.3205   -3.8393    1.2928 C.ar      1 <0>        -0.0737
     15 C12         4.6808   -4.0960    2.5053 C.ar      1 <0>        -0.0868
     16 C13         4.8882   -5.2979    3.1506 C.ar      1 <0>        -0.1199
     17 C14         5.7288   -6.2472    2.5974 C.ar      1 <0>        -0.0936
     18 C15         6.3665   -5.9983    1.3951 C.ar      1 <0>        -0.1256
     19 C16         6.1623   -4.8027    0.7373 C.ar      1 <0>        -0.0641
     20 C17         2.7538   -2.4881    1.3718 C.1       1 <0>         0.2710
     21 N4          1.8877   -2.9455    1.9472 N.1       1 <0>        -0.4065
     22 H1         -0.9604    1.9042    0.0260 H         1 <0>         0.1292
     23 H2          1.1475    3.1726    0.0078 H         1 <0>         0.1314
     24 H3          3.3020    1.9860   -0.0192 H         1 <0>         0.1340
     25 H4          1.2180   -1.7604   -0.0194 H         1 <0>         0.1248
     26 H5         -0.9264   -0.5556    0.0083 H         1 <0>         0.1304
     27 H6          7.8114   -0.7222   -1.4432 H         1 <0>         0.4202
     28 H7          6.8357    0.5731   -1.8823 H         1 <0>         0.4202
     29 H8          4.0249   -3.3554    2.9385 H         1 <0>         0.1248
     30 H9          4.3934   -5.4978    4.0895 H         1 <0>         0.1304
     31 H10         5.8882   -7.1864    3.1063 H         1 <0>         0.1292
     32 H11         7.0221   -6.7430    0.9686 H         1 <0>         0.1314
     33 H12         6.6572   -4.6113   -0.2034 H         1 <0>         0.1340
@<TRIPOS>BOND
     1    1    6 ar
     2    1    2 ar
     3    1   22 1
     4    2    3 ar
     5    2   23 1
     6    3    4 ar
     7    3   24 1
     8    4    5 ar
     9    4    7 1
    10    5    6 ar
    11    5   25 1
    12    6   26 1
    13    7   12 ar
    14    7    8 ar
    15    8    9 ar
    16    8   20 1
    17    9   10 ar
    18    9   14 1
    19   10   11 ar
    20   11   12 ar
    21   11   13 1
    22   13   27 1
    23   13   28 1
    24   14   19 ar
    25   14   15 ar
    26   15   16 ar
    27   15   29 1
    28   16   17 ar
    29   16   30 1
    30   17   18 ar
    31   17   31 1
    32   18   19 ar
    33   18   32 1
    34   19   33 1
    35   20   21 3
@<TRIPOS>MOLECULE
CHEMBL1093479
   33    37     0     0     0
SMALL
USER_CHARGES

@<TRIPOS>ATOM
      1 C1          0.6371    0.2650   -1.1961 C.ar      1 <0>        -0.0998
      2 C2          1.8243    0.9711   -1.2071 C.ar      1 <0>        -0.0620
      3 C3          2.3811    1.4094   -0.0131 C.ar      1 <0>         0.0921
      4 C4          1.7422    1.1362    1.1893 C.ar      1 <0>        -0.0466
      5 C5          0.5551    0.4295    1.1940 C.ar      1 <0>        -0.0937
      6 C6          0.0030   -0.0057    0.0022 C.ar      1 <0>        -0.0578
      7 I1         -0.4096    0.0160    3.0070 I         1 <0>        -0.0185
      8 N1          3.5850    2.1251   -0.0212 N.pl3     1 <0>        -0.4101
      9 C7          4.7817    1.4462    0.0631 C.2       1 <0>         0.3462
     10 C8          5.9319    2.2318    0.0481 C.2       1 <0>        -0.2116
     11 C9          7.2048    1.6649    0.1280 C.2       1 <0>         0.3710
     12 N2          8.4410    2.1394    0.1367 N.2       1 <0>        -0.5031
     13 C10         9.3114    1.1308    0.2331 C.2       1 <0>         0.3607
     14 N3          8.6516   -0.0131    0.2882 N.2       1 <0>        -0.2779
     15 N4          7.2890    0.2955    0.2227 N.pl3     1 <0>        -0.3351
     16 C11         6.1477   -0.4350    0.2339 C.2       1 <0>         0.4295
     17 N5          4.9693    0.1050    0.1582 N.2       1 <0>        -0.4750
     18 C12        10.7821    1.2718    0.2715 C.2       1 <0>         0.0318
     19 C13        11.6789    0.2544    0.3639 C.2       1 <0>        -0.1276
     20 C14        12.9597    0.8415    0.3683 C.2       1 <0>        -0.2202
     21 C15        12.7833    2.1745    0.2794 C.2       1 <0>         0.0024
     22 O1         11.4668    2.4305    0.2152 O.3       1 <0>        -0.1522
     23 S1          5.2976    3.8834   -0.0828 S.3       1 <0>         0.2147
     24 C16         3.5601    3.4701   -0.1169 C.2       1 <0>         0.2445
     25 S2          2.2088    4.5143   -0.2385 S.2       1 <0>        -0.3351
     26 H1          0.2014   -0.0721   -2.1251 H         1 <0>         0.1468
     27 H2          2.3192    1.1819   -2.1437 H         1 <0>         0.1346
     28 H3          2.1731    1.4754    2.1197 H         1 <0>         0.1336
     29 H4         -0.9251   -0.5580    0.0081 H         1 <0>         0.1415
     30 H5          6.2213   -1.5099    0.3082 H         1 <0>         0.2367
     31 H6         11.4532   -0.8001    0.4228 H         1 <0>         0.1627
     32 H7         13.9042    0.3215    0.4314 H         1 <0>         0.1616
     33 H8         13.5702    2.9138    0.2585 H         1 <0>         0.2160
@<TRIPOS>BOND
     1    1    6 ar
     2    1    2 ar
     3    1   26 1
     4    2    3 ar
     5    2   27 1
     6    3    4 ar
     7    3    8 1
     8    4    5 ar
     9    4   28 1
    10    5    6 ar
    11    5    7 1
    12    6   29 1
    13    8   24 1
    14    8    9 1
    15    9   17 1
    16    9   10 2
    17   10   11 1
    18   10   23 1
    19   11   15 1
    20   11   12 2
    21   12   13 1
    22   13   14 2
    23   13   18 1
    24   14   15 1
    25   15   16 1
    26   16   17 2
    27   16   30 1
    28   18   22 1
    29   18   19 2
    30   19   20 1
    31   19   31 1
    32   20   21 2
    33   20   32 1
    34   21   22 1
    35   21   33 1
    36   23   24 1
    37   24   25 2
@<TRIPOS>MOLECULE
CHEMBL222145
   59    64     0     0     0
SMALL
USER_CHARGES

@<TRIPOS>ATOM
      1 C1         -0.0162    1.3433    0.0094 C.2       1 <0>        -0.2197
      2 C2          1.3252    1.7744   -0.0011 C.2       1 <0>        -0.1242
      3 C3          2.0963    0.6547   -0.0144 C.2       1 <0>         0.0318
      4 O1          1.2798   -0.4167   -0.0124 O.3       1 <0>        -0.1587
      5 C4          0.0021   -0.0041    0.0020 C.2       1 <0>        -0.0009
      6 C5          3.5735    0.6192   -0.0292 C.2       1 <0>         0.3321
      7 N1          4.3782    1.6975   -0.0257 N.2       1 <0>        -0.4764
      8 C6          5.6284    1.3133   -0.0438 C.2       1 <0>         0.4996
      9 N2          6.7827    2.0136   -0.0426 N.2       1 <0>        -0.5249
     10 C7          7.9149    1.3544   -0.2245 C.2       1 <0>         0.6640
     11 N3          7.9251    0.0030   -0.4737 N.pl3     1 <0>        -0.7080
     12 C8          6.8335   -0.7612   -0.0614 C.2       1 <0>         0.6315
     13 N4          5.6350   -0.0666   -0.0535 N.pl3     1 <0>        -0.3832
     14 N5          4.3125   -0.4776   -0.0421 N.2       1 <0>        -0.2429
     15 N6          6.9320   -2.0133    0.2840 N.2       1 <0>        -0.6521
     16 N7          9.1029    2.0335   -0.1638 N.pl3     1 <0>        -0.5991
     17 C9         10.3866    1.3423   -0.3661 C.3       1 <0>         0.0899
     18 C10        11.3005    1.6893    0.8113 C.3       1 <0>        -0.0205
     19 N8         11.4311    3.1501    0.9330 N.4       1 <0>        -0.3840
     20 C11        12.3915    3.4256    2.0122 C.3       1 <0>         0.0035
     21 C12        12.6152    4.9311    2.1496 C.3       1 <0>        -0.1270
     22 H1         13.3336    5.1226    2.9467 H         1 <0>         0.1302
     23 C13        11.2787    5.5987    2.4911 C.3       1 <0>        -0.1304
     24 C14        10.2734    5.2712    1.3860 C.3       1 <0>        -0.1426
     25 C15        10.1305    3.7519    1.2449 C.3       1 <0>         0.0170
     26 H2          9.7485    3.3332    2.1760 H         1 <0>         0.1473
     27 C16         9.1400    3.4780    0.0994 C.3       1 <0>         0.1086
     28 C17        13.1504    5.4926    0.8309 C.3       1 <0>         0.1323
     29 N9         13.4764    6.9108    1.0005 N.pl3     1 <0>        -0.7020
     30 C18        13.9809    7.6371   -0.0643 C.ar      1 <0>         0.5552
     31 N10        14.1577    7.0356   -1.2315 N.ar      1 <0>        -0.5751
     32 C19        14.6375    7.7009   -2.2692 C.ar      1 <0>         0.1902
     33 C20        14.9558    9.0421   -2.1239 C.ar      1 <0>        -0.2764
     34 C21        14.7584    9.6400   -0.8892 C.ar      1 <0>         0.1975
     35 N11        14.2704    8.9187    0.1064 N.ar      1 <0>        -0.5646
     36 H3         -0.8931    1.9736    0.0252 H         1 <0>         0.1611
     37 H4          1.6735    2.7967    0.0011 H         1 <0>         0.1629
     38 H5         -0.8667   -0.6456    0.0069 H         1 <0>         0.2154
     39 H6          7.7947   -2.4563    0.2614 H         1 <0>         0.3682
     40 H7         10.2237    0.2651   -0.4012 H         1 <0>         0.1239
     41 H8         10.8427    1.6772   -1.2978 H         1 <0>         0.1138
     42 H9         10.8752    1.2862    1.7304 H         1 <0>         0.1387
     43 H10        12.2846    1.2505    0.6469 H         1 <0>         0.1533
     44 H11        12.0025    3.0313    2.9510 H         1 <0>         0.1381
     45 H12        13.3399    2.9391    1.7844 H         1 <0>         0.1386
     46 H13        10.9121    5.2172    3.4440 H         1 <0>         0.0910
     47 H14        11.4145    6.6783    2.5540 H         1 <0>         0.0997
     48 H15         9.3052    5.7042    1.6374 H         1 <0>         0.1215
     49 H16        10.6225    5.6913    0.4427 H         1 <0>         0.0946
     50 H17         9.4634    4.0037   -0.7990 H         1 <0>         0.1043
     51 H18         8.1461    3.8217    0.3858 H         1 <0>         0.1531
     52 H19        14.0476    4.9458    0.5406 H         1 <0>         0.0781
     53 H20        12.3921    5.3844    0.0554 H         1 <0>         0.0605
     54 H21        13.3387    7.3408    1.8590 H         1 <0>         0.4183
     55 H22        14.7797    7.2051   -3.2180 H         1 <0>         0.1708
     56 H23        15.3494    9.6088   -2.9548 H         1 <0>         0.1508
     57 H24        14.9967   10.6832   -0.7428 H         1 <0>         0.1735
     58 H25         8.6760   -0.4109   -0.9272 H         1 <0>         0.4282
     59 H26        11.7789    3.5306    0.0656 H         1 <0>         0.4234
@<TRIPOS>BOND
     1    1    5 2
     2    1    2 1
     3    1   36 1
     4    2    3 2
     5    2   37 1
     6    3    4 1
     7    3    6 1
     8    4    5 1
     9    5   38 1
    10    6   14 2
    11    6    7 1
    12    7    8 2
    13    8   13 1
    14    8    9 1
    15    9   10 2
    16   10   11 1
    17   10   16 1
    18   11   12 1
    19   11   58 1
    20   12   13 1
    21   12   15 2
    22   13   14 1
    23   15   39 1
    24   16   27 1
    25   16   17 1
    26   17   18 1
    27   17   40 1
    28   17   41 1
    29   18   19 1
    30   18   42 1
    31   18   43 1
    32   19   25 1
    33   19   20 1
    34   19   59 1
    35   20   21 1
    36   20   44 1
    37   20   45 1
    38   21   22 1
    39   21   23 1
    40   21   28 1
    41   23   24 1
    42   23   46 1
    43   23   47 1
    44   24   25 1
    45   24   48 1
    46   24   49 1
    47   25   26 1
    48   25   27 1
    49   27   50 1
    50   27   51 1
    51   28   29 1
    52   28   52 1
    53   28   53 1
    54   29   30 1
    55   29   54 1
    56   30   35 ar
    57   30   31 ar
    58   31   32 ar
    59   32   33 ar
    60   32   55 1
    61   33   34 ar
    62   33   56 1
    63   34   35 ar
    64   34   57 1
@<TRIPOS>MOLECULE
CHEMBL407049
   41    44     0     0     0
SMALL
USER_CHARGES

@<TRIPOS>ATOM
      1 C1         -0.0167    1.3781    0.0096 C.ar      1 <0>        -0.1238
      2 C2          1.1709    2.0855    0.0021 C.ar      1 <0>        -0.1185
      3 C3          2.3773    1.4107   -0.0130 C.ar      1 <0>        -0.1166
      4 C4          2.3960    0.0285   -0.0201 C.ar      1 <0>        -0.0831
      5 C5          1.2084   -0.6789   -0.0117 C.ar      1 <0>        -0.1166
      6 C6          0.0021   -0.0041    0.0020 C.ar      1 <0>        -0.1182
      7 C7          3.7112   -0.7071   -0.0376 C.3       1 <0>        -0.0762
      8 C8          4.1714   -0.9633    1.3989 C.3       1 <0>        -0.1293
      9 C9          5.5066   -1.7102    1.3812 C.3       1 <0>         0.1419
     10 N1          5.9472   -1.9554    2.7567 N.pl3     1 <0>        -0.3811
     11 C10         6.7226   -1.1224    3.5084 C.ar      1 <0>         0.3936
     12 C11         6.8957   -1.7536    4.7568 C.ar      1 <0>        -0.3155
     13 C12         6.1959   -2.9768    4.7021 C.2       1 <0>         0.1182
     14 N2          5.6398   -3.0830    3.5286 N.2       1 <0>        -0.2473
     15 C13         7.6701   -1.0965    5.7390 C.ar      1 <0>         0.3838
     16 N3          8.2004    0.0885    5.4393 N.ar      1 <0>        -0.5701
     17 C14         8.0094    0.6427    4.2497 C.ar      1 <0>         0.6183
     18 N4          7.2918    0.0626    3.3017 N.ar      1 <0>        -0.5921
     19 N5          8.5829    1.8755    3.9900 N.pl3     1 <0>        -0.8111
     20 C15         7.8855   -1.7062    7.0616 C.2       1 <0>        -0.0024
     21 C16         9.0184   -1.6085    7.8129 C.2       1 <0>        -0.1295
     22 C17         8.7860   -2.3387    8.9923 C.2       1 <0>        -0.2205
     23 C18         7.5369   -2.8421    8.9070 C.2       1 <0>        -0.0086
     24 O1          6.9946   -2.4535    7.7433 O.3       1 <0>        -0.1610
     25 H1         -0.9591    1.9053    0.0259 H         1 <0>         0.1214
     26 H2          1.1563    3.1654    0.0076 H         1 <0>         0.1218
     27 H3          3.3051    1.9634   -0.0196 H         1 <0>         0.1211
     28 H4          1.2231   -1.7588   -0.0176 H         1 <0>         0.1217
     29 H5         -0.9258   -0.5567    0.0082 H         1 <0>         0.1222
     30 H6          3.5884   -1.6586   -0.5549 H         1 <0>         0.0777
     31 H7          4.4573   -0.1052   -0.5563 H         1 <0>         0.0772
     32 H8          4.2941   -0.0118    1.9163 H         1 <0>         0.0704
     33 H9          3.4252   -1.5652    1.9176 H         1 <0>         0.0735
     34 H10         5.3838   -2.6617    0.8639 H         1 <0>         0.0988
     35 H11         6.2527   -1.1082    0.8625 H         1 <0>         0.0979
     36 H12         6.1290   -3.7016    5.4999 H         1 <0>         0.1979
     37 H13         9.1126    2.3173    4.6719 H         1 <0>         0.4190
     38 H14         8.4550    2.2975    3.1260 H         1 <0>         0.4178
     39 H15         9.9202   -1.0744    7.5527 H         1 <0>         0.1578
     40 H16         9.4769   -2.4714    9.8117 H         1 <0>         0.1571
     41 H17         7.0523   -3.4529    9.6543 H         1 <0>         0.2127
@<TRIPOS>BOND
     1    1    6 ar
     2    1    2 ar
     3    1   25 1
     4    2    3 ar
     5    2   26 1
     6    3    4 ar
     7    3   27 1
     8    4    5 ar
     9    4    7 1
    10    5    6 ar
    11    5   28 1
    12    6   29 1
    13    7    8 1
    14    7   30 1
    15    7   31 1
    16    8    9 1
    17    8   32 1
    18    8   33 1
    19    9   10 1
    20    9   34 1
    21    9   35 1
    22   10   14 1
    23   10   11 1
    24   11   18 ar
    25   11   12 ar
    26   12   13 1
    27   12   15 ar
    28   13   14 2
    29   13   36 1
    30   15   16 ar
    31   15   20 1
    32   16   17 ar
    33   17   18 ar
    34   17   19 1
    35   19   37 1
    36   19   38 1
    37   20   24 1
    38   20   21 2
    39   21   22 1
    40   21   39 1
    41   22   23 2
    42   22   40 1
    43   23   24 1
    44   23   41 1
@<TRIPOS>MOLECULE
CHEMBL468370
   31    33     0     0     0
SMALL
USER_CHARGES

@<TRIPOS>ATOM
      1 C1         -0.0167    1.3792    0.0096 C.ar      1 <0>        -0.1044
      2 C2          1.1686    2.0926    0.0021 C.ar      1 <0>        -0.1191
      3 C3          2.3774    1.4273   -0.0129 C.ar      1 <0>        -0.0902
      4 C4          2.4027    0.0331   -0.0206 C.ar      1 <0>        -0.0729
      5 C5          1.2048   -0.6804   -0.0130 C.ar      1 <0>        -0.0928
      6 C6          0.0021   -0.0041    0.0020 C.ar      1 <0>        -0.1173
      7 C7          3.6976   -0.6873   -0.0373 C.ar      1 <0>         0.0999
      8 C8          4.6882   -0.3548   -0.9568 C.ar      1 <0>        -0.2051
      9 C9          5.8947   -1.0552   -0.9425 C.ar      1 <0>         0.2933
     10 N1          6.1109   -2.0329   -0.0655 N.ar      1 <0>        -0.5318
     11 C10         5.2021   -2.3851    0.8265 C.ar      1 <0>         0.4701
     12 C11         3.9613   -1.7257    0.8834 C.ar      1 <0>        -0.1512
     13 C12         2.9797   -2.1040    1.8550 C.1       1 <0>         0.2576
     14 N2          2.2010   -2.4041    2.6257 N.1       1 <0>        -0.4093
     15 N3          5.4759   -3.4091    1.7166 N.pl3     1 <0>        -0.8339
     16 C13         6.9472   -0.7071   -1.9148 C.2       1 <0>        -0.0019
     17 C14         8.1661   -1.3047   -2.0218 C.2       1 <0>        -0.1328
     18 C15         8.8417   -0.6611   -3.0753 C.2       1 <0>        -0.2229
     19 C16         8.0126    0.2880   -3.5558 C.2       1 <0>        -0.0101
     20 O1          6.8680    0.2539   -2.8562 O.3       1 <0>        -0.1649
     21 H1         -0.9603    1.9042    0.0260 H         1 <0>         0.1270
     22 H2          1.1477    3.1724    0.0077 H         1 <0>         0.1297
     23 H3          3.3021    1.9853   -0.0191 H         1 <0>         0.1304
     24 H4          1.2182   -1.7603   -0.0193 H         1 <0>         0.1216
     25 H5         -0.9264   -0.5557    0.0082 H         1 <0>         0.1277
     26 H6          4.5246    0.4364   -1.6736 H         1 <0>         0.1506
     27 H7          6.3317   -3.8644    1.6837 H         1 <0>         0.4138
     28 H8          4.8119   -3.6713    2.3733 H         1 <0>         0.4125
     29 H9          8.5418   -2.1154   -1.4152 H         1 <0>         0.1595
     30 H10         9.8366   -0.8846   -3.4313 H         1 <0>         0.1557
     31 H11         8.2322    0.9616   -4.3709 H         1 <0>         0.2112
@<TRIPOS>BOND
     1    1    6 ar
     2    1    2 ar
     3    1   21 1
     4    2    3 ar
     5    2   22 1
     6    3    4 ar
     7    3   23 1
     8    4    5 ar
     9    4    7 1
    10    5    6 ar
    11    5   24 1
    12    6   25 1
    13    7   12 ar
    14    7    8 ar
    15    8    9 ar
    16    8   26 1
    17    9   10 ar
    18    9   16 1
    19   10   11 ar
    20   11   12 ar
    21   11   15 1
    22   12   13 1
    23   13   14 3
    24   15   27 1
    25   15   28 1
    26   16   20 1
    27   16   17 2
    28   17   18 1
    29   17   29 1
    30   18   19 2
    31   18   30 1
    32   19   20 1
    33   19   31 1
@<TRIPOS>MOLECULE
CHEMBL189192
   52    56     0     0     0
SMALL
USER_CHARGES

@<TRIPOS>ATOM
      1 C1         -0.7376    1.1933   -0.4486 C.3       1 <0>         0.0853
      2 N1         -0.5022   -0.2456   -0.3057 N.pl3     1 <0>        -0.3373
      3 C2         -0.4120   -1.1394   -1.3132 C.2       1 <0>         0.1270
      4 C3         -0.1909   -2.3581   -0.7646 C.2       1 <0>        -0.1710
      5 C4         -0.1447   -2.2021    0.6246 C.2       1 <0>         0.0091
      6 N2         -0.3251   -0.9359    0.9002 N.2       1 <0>        -0.2029
      7 C5          0.0809   -3.3017    1.6300 C.3       1 <0>         0.5604
      8 F1          1.4518   -3.4359    1.8747 F         1 <0>        -0.1603
      9 F2         -0.5770   -2.9847    2.8233 F         1 <0>        -0.1618
     10 F3         -0.4227   -4.5055    1.1255 F         1 <0>        -0.1611
     11 C6         -0.0242   -3.6527   -1.5177 C.3       1 <0>         0.1161
     12 N3          1.3962   -3.8572   -1.8316 N.3       1 <0>        -0.5318
     13 C7          1.8808   -2.8347   -2.7684 C.3       1 <0>         0.0336
     14 C8          3.3986   -2.9717   -2.9287 C.3       1 <0>         0.1047
     15 N4          3.7049   -4.3590   -3.3093 N.pl3     1 <0>        -0.5434
     16 C9          3.1384   -5.4451   -2.4952 C.3       1 <0>         0.1187
     17 C10         1.6308   -5.2107   -2.3520 C.3       1 <0>         0.0366
     18 C11         4.5026   -4.6342   -4.4005 C.2       1 <0>         0.6551
     19 N5          5.0975   -3.6285   -5.0480 N.pl3     1 <0>        -0.6006
     20 C12         5.8666   -3.8633   -6.0958 C.cat     1 <0>         0.7690
     21 N6          6.0514   -5.1481   -6.5163 N.pl3     1 <0>        -0.4040
     22 C13         5.4367   -6.1728   -5.8452 C.2       1 <0>         0.5466
     23 N7          4.6688   -5.8896   -4.7833 N.2       1 <0>        -0.5075
     24 N8          5.7745   -7.3017   -6.4463 N.2       1 <0>        -0.4674
     25 C14         6.5843   -7.0367   -7.4794 C.2       1 <0>         0.4161
     26 N9          6.7793   -5.7340   -7.5580 N.2       1 <0>        -0.2966
     27 C15         7.1683   -8.0450   -8.3883 C.2       1 <0>        -0.0053
     28 C16         6.9713   -9.3885   -8.3217 C.2       1 <0>        -0.0891
     29 C17         7.7127   -9.9601   -9.3746 C.2       1 <0>        -0.2216
     30 C18         8.3194   -8.9478  -10.0252 C.2       1 <0>         0.0246
     31 O1          7.9837   -7.7920   -9.4303 O.3       1 <0>        -0.1586
     32 N10         6.4729   -2.8261   -6.7548 N.pl3     1 <0>        -0.7477
     33 Cl1        -0.5544   -0.7901   -3.0077 Cl        1 <0>         0.0154
     34 H1          0.2176    1.7102   -0.5409 H         1 <0>         0.0925
     35 H2         -1.3375    1.3765   -1.3401 H         1 <0>         0.0998
     36 H3         -1.2679    1.5636    0.4287 H         1 <0>         0.1086
     37 H4         -0.3832   -4.4789   -0.9040 H         1 <0>         0.1135
     38 H5         -0.5985   -3.6112   -2.4431 H         1 <0>         0.0612
     39 H6          1.3991   -2.9709   -3.7366 H         1 <0>         0.0528
     40 H7          1.6440   -1.8441   -2.3801 H         1 <0>         0.1020
     41 H8          3.7474   -2.2930   -3.7070 H         1 <0>         0.0794
     42 H9          3.8894   -2.7341   -1.9849 H         1 <0>         0.1178
     43 H10         3.3151   -6.4017   -2.9870 H         1 <0>         0.1249
     44 H11         3.6042   -5.4453   -1.5097 H         1 <0>         0.1086
     45 H12         1.2128   -5.9433   -1.6617 H         1 <0>         0.1138
     46 H13         1.1526   -5.3139   -3.3260 H         1 <0>         0.0535
     47 H14         6.3641   -9.9158   -7.6008 H         1 <0>         0.1702
     48 H15         7.7820  -11.0108   -9.6147 H         1 <0>         0.1684
     49 H16         8.9648   -9.0491  -10.8852 H         1 <0>         0.2222
     50 H17         6.3382   -1.9144   -6.4523 H         1 <0>         0.4464
     51 H18         7.0368   -3.0036   -7.5239 H         1 <0>         0.4601
     52 H19         4.9631   -2.7167   -4.7458 H         1 <0>         0.4541
@<TRIPOS>BOND
     1    1    2 1
     2    1   34 1
     3    1   35 1
     4    1   36 1
     5    2    6 1
     6    2    3 1
     7    3    4 2
     8    3   33 1
     9    4    5 1
    10    4   11 1
    11    5    6 2
    12    5    7 1
    13    7    8 1
    14    7    9 1
    15    7   10 1
    16   11   12 1
    17   11   37 1
    18   11   38 1
    19   12   17 1
    20   12   13 1
    21   13   14 1
    22   13   39 1
    23   13   40 1
    24   14   15 1
    25   14   41 1
    26   14   42 1
    27   15   16 1
    28   15   18 1
    29   16   17 1
    30   16   43 1
    31   16   44 1
    32   17   45 1
    33   17   46 1
    34   18   23 2
    35   18   19 1
    36   19   20 2
    37   19   52 1
    38   20   21 1
    39   20   32 1
    40   21   26 1
    41   21   22 1
    42   22   23 1
    43   22   24 2
    44   24   25 1
    45   25   26 2
    46   25   27 1
    47   27   31 1
    48   27   28 2
    49   28   29 1
    50   28   47 1
    51   29   30 2
    52   29   48 1
    53   30   31 1
    54   30   49 1
    55   32   50 1
    56   32   51 1
@<TRIPOS>MOLECULE
CHEMBL519282
   50    55     0     0     0
SMALL
USER_CHARGES

@<TRIPOS>ATOM
      1 C1         -0.0166    1.3757    0.0096 C.ar      1 <0>        -0.1119
      2 C2          1.1704    2.0862    0.0021 C.ar      1 <0>        -0.1064
      3 C3          2.3816    1.4188   -0.0135 C.ar      1 <0>        -0.0797
      4 C4          2.4120    0.0387   -0.0213 C.ar      1 <0>        -0.1005
      5 C5          1.2197   -0.6817   -0.0133 C.ar      1 <0>        -0.0418
      6 C6          0.0021   -0.0041    0.0020 C.ar      1 <0>        -0.1078
      7 C7          1.2461   -2.1654   -0.0215 C.ar      1 <0>        -0.0963
      8 C8          0.0552   -2.8969   -0.0194 C.ar      1 <0>        -0.0685
      9 C9          0.1335   -4.2788   -0.0273 C.ar      1 <0>        -0.1674
     10 C10         1.3762   -4.8859   -0.0370 C.ar      1 <0>         0.0976
     11 N1          2.4831   -4.1689   -0.0383 N.ar      1 <0>        -0.4806
     12 C11         2.4582   -2.8517   -0.0373 C.ar      1 <0>         0.1085
     13 C12         3.6705    2.1996   -0.0227 C.3       1 <0>        -0.0958
     14 C13         4.1213    2.4565    1.4167 C.3       1 <0>         0.1440
     15 N2          5.3743    3.2156    1.4078 N.pl3     1 <0>        -0.3553
     16 C14         6.6294    2.6850    1.3869 C.2       1 <0>         0.3707
     17 C15         7.5209    3.7685    1.3852 C.2       1 <0>        -0.2671
     18 C16         6.7500    4.9446    1.4056 C.2       1 <0>         0.1316
     19 N3          5.4885    4.6113    1.4132 N.2       1 <0>        -0.2633
     20 C17         8.9550    3.4782    1.3646 C.2       1 <0>         0.4064
     21 N4         10.0451    4.2169    1.3573 N.2       1 <0>        -0.5161
     22 C18        11.1249    3.4251    1.3368 C.2       1 <0>         0.3506
     23 N5         10.7388    2.1632    1.3306 N.2       1 <0>        -0.2993
     24 N6          9.3382    2.1622    1.3482 N.pl3     1 <0>        -0.3764
     25 C19         8.3940    1.1770    1.3511 C.2       1 <0>         0.6924
     26 N7          7.1091    1.4336    1.3696 N.2       1 <0>        -0.5616
     27 N8          8.8065   -0.1349    1.3345 N.pl3     1 <0>        -0.8017
     28 C20        12.5274    3.8910    1.3232 C.2       1 <0>         0.0422
     29 C21        13.6312    3.0979    1.2969 C.2       1 <0>        -0.1370
     30 C22        14.7481    3.9568    1.2917 C.2       1 <0>        -0.2199
     31 C23        14.2758    5.2187    1.3149 C.2       1 <0>        -0.0041
     32 O1         12.9339    5.1752    1.3288 O.3       1 <0>        -0.1521
     33 H1         -0.9596    1.9019    0.0260 H         1 <0>         0.1282
     34 H2          1.1512    3.1660    0.0081 H         1 <0>         0.1272
     35 H3          3.3584   -0.4815   -0.0338 H         1 <0>         0.1277
     36 H4         -0.9252   -0.5577    0.0083 H         1 <0>         0.1256
     37 H5         -0.9019   -2.3965   -0.0115 H         1 <0>         0.1374
     38 H6         -0.7661   -4.8765   -0.0256 H         1 <0>         0.1389
     39 H7          1.4411   -5.9640   -0.0432 H         1 <0>         0.1581
     40 H8          3.3860   -2.2989   -0.0436 H         1 <0>         0.1571
     41 H9          4.4371    1.6292   -0.5472 H         1 <0>         0.0813
     42 H10         3.5150    3.1516   -0.5301 H         1 <0>         0.0862
     43 H11         3.3547    3.0269    1.9412 H         1 <0>         0.1041
     44 H12         4.2768    1.5045    1.9242 H         1 <0>         0.1016
     45 H13         7.1367    5.9530    1.4099 H         1 <0>         0.2025
     46 H14         9.7533   -0.3455    1.3210 H         1 <0>         0.4265
     47 H15         8.1507   -0.8496    1.3362 H         1 <0>         0.4307
     48 H16        13.6486    2.0181    1.2830 H         1 <0>         0.1600
     49 H17        15.7864    3.6600    1.2731 H         1 <0>         0.1594
     50 H18        14.8768    6.1160    1.3178 H         1 <0>         0.2142
@<TRIPOS>BOND
     1    1    6 ar
     2    1    2 ar
     3    1   33 1
     4    2    3 ar
     5    2   34 1
     6    3    4 ar
     7    3   13 1
     8    4    5 ar
     9    4   35 1
    10    5    6 ar
    11    5    7 1
    12    6   36 1
    13    7   12 ar
    14    7    8 ar
    15    8    9 ar
    16    8   37 1
    17    9   10 ar
    18    9   38 1
    19   10   11 ar
    20   10   39 1
    21   11   12 ar
    22   12   40 1
    23   13   14 1
    24   13   41 1
    25   13   42 1
    26   14   15 1
    27   14   43 1
    28   14   44 1
    29   15   19 1
    30   15   16 1
    31   16   26 1
    32   16   17 2
    33   17   18 1
    34   17   20 1
    35   18   19 2
    36   18   45 1
    37   20   24 1
    38   20   21 2
    39   21   22 1
    40   22   23 2
    41   22   28 1
    42   23   24 1
    43   24   25 1
    44   25   26 2
    45   25   27 1
    46   27   46 1
    47   27   47 1
    48   28   32 1
    49   28   29 2
    50   29   30 1
    51   29   48 1
    52   30   31 2
    53   30   49 1
    54   31   32 1
    55   31   50 1
@<TRIPOS>MOLECULE
CHEMBL180211
   71    76     0     0     0
SMALL
USER_CHARGES

@<TRIPOS>ATOM
      1 C1         -0.3468    1.3294   -2.6729 C.3       1 <0>         0.0306
      2 O1         -0.7818   -0.0230   -2.5181 O.3       1 <0>        -0.3849
      3 C2         -1.5644   -0.2511   -1.3444 C.3       1 <0>         0.0603
      4 C3         -1.9726   -1.7243   -1.2820 C.3       1 <0>         0.0610
      5 O2         -0.8069   -2.5352   -1.1224 O.3       1 <0>        -0.3039
      6 C4         -0.9953   -3.8781   -1.0489 C.ar      1 <0>         0.1229
      7 C5         -2.2743   -4.4058   -1.1344 C.ar      1 <0>        -0.1588
      8 C6         -2.4682   -5.7707   -1.0604 C.ar      1 <0>        -0.1271
      9 C7         -1.3834   -6.6263   -0.8993 C.ar      1 <0>         0.1885
     10 C8         -0.1005   -6.1135   -0.8121 C.ar      1 <0>        -0.1175
     11 C9          0.1032   -4.7337   -0.8925 C.ar      1 <0>        -0.0109
     12 C10         1.4278   -4.1960   -0.8094 C.1       1 <0>         0.2619
     13 N1          2.4786   -3.7695   -0.7436 N.1       1 <0>        -0.4144
     14 N2         -1.5895   -8.0086   -0.8248 N.pl3     1 <0>        -0.6305
     15 C11        -2.9491   -8.5687   -0.7953 C.3       1 <0>         0.1280
     16 C12        -3.0512   -9.6558   -1.8705 C.3       1 <0>         0.0392
     17 N3         -1.9722  -10.6338   -1.6774 N.3       1 <0>        -0.5301
     18 C13        -0.6525  -10.0122   -1.8500 C.3       1 <0>         0.0346
     19 C14        -0.4521   -8.9400   -0.7801 C.3       1 <0>         0.1265
     20 C15        -2.1352  -11.7822   -2.5789 C.3       1 <0>         0.0952
     21 C16        -1.1656  -12.8681   -2.1893 C.ar      1 <0>        -0.0882
     22 C17         0.1000  -12.8967   -2.7478 C.ar      1 <0>        -0.0930
     23 C18         0.9955  -13.8900   -2.3948 C.ar      1 <0>        -0.1221
     24 C19         0.6307  -14.8594   -1.4827 C.ar      1 <0>        -0.0845
     25 C20        -0.6431  -14.8358   -0.9165 C.ar      1 <0>        -0.0582
     26 C21        -1.5397  -13.8285   -1.2721 C.ar      1 <0>        -0.0457
     27 C22        -1.0409  -15.8739    0.0635 C.2       1 <0>         0.2541
     28 C23        -0.1448  -16.8649    0.4216 C.2       1 <0>        -0.2189
     29 C24        -0.5553  -17.8340    1.3548 C.2       1 <0>         0.3539
     30 N4          0.0349  -18.8866    1.8989 N.2       1 <0>        -0.5242
     31 C25        -0.8094  -19.4865    2.7440 C.2       1 <0>         0.3542
     32 N5         -1.9558  -18.8303    2.7575 N.2       1 <0>        -0.3215
     33 N6         -1.8245  -17.7553    1.8691 N.pl3     1 <0>        -0.3621
     34 C26        -2.6578  -16.7531    1.4740 C.2       1 <0>         0.6545
     35 N7         -2.2681  -15.8476    0.6062 N.2       1 <0>        -0.5486
     36 N8         -3.9280  -16.6850    1.9970 N.pl3     1 <0>        -0.8073
     37 C27        -0.5076  -20.6956    3.5389 C.2       1 <0>         0.0363
     38 C28         0.6685  -21.3772    3.5388 C.2       1 <0>        -0.1267
     39 C29         0.5139  -22.4534    4.4349 C.2       1 <0>        -0.2189
     40 C30        -0.7361  -22.3763    4.9325 C.2       1 <0>        -0.0076
     41 O3         -1.3483  -21.3099    4.3934 O.3       1 <0>        -0.1607
     42 H1         -1.2150    1.9857   -2.7328 H         1 <0>         0.0425
     43 H2          0.2657    1.6142   -1.8175 H         1 <0>         0.0431
     44 H3          0.2406    1.4197   -3.5866 H         1 <0>         0.0882
     45 H4         -0.9772    0.0010   -0.4615 H         1 <0>         0.0618
     46 H5         -2.4579    0.3724   -1.3767 H         1 <0>         0.0737
     47 H6         -2.6422   -1.8802   -0.4361 H         1 <0>         0.0814
     48 H7         -2.4830   -1.9994   -2.2050 H         1 <0>         0.0749
     49 H8         -3.1213   -3.7474   -1.2587 H         1 <0>         0.1379
     50 H9         -3.4670   -6.1760   -1.1275 H         1 <0>         0.1341
     51 H10         0.7411   -6.7787   -0.6866 H         1 <0>         0.1389
     52 H11        -3.1448   -9.0035    0.1848 H         1 <0>         0.0722
     53 H12        -3.6741   -7.7811   -1.0010 H         1 <0>         0.0865
     54 H13        -4.0155  -10.1575   -1.7901 H         1 <0>         0.0873
     55 H14        -2.9582   -9.2016   -2.8570 H         1 <0>         0.0406
     56 H15         0.1229  -10.7724   -1.7546 H         1 <0>         0.0913
     57 H16        -0.5928   -9.5531   -2.8367 H         1 <0>         0.0395
     58 H17         0.4731   -8.3979   -0.9757 H         1 <0>         0.0851
     59 H18        -0.4031   -9.4113    0.2015 H         1 <0>         0.0717
     60 H19        -3.1544  -12.1612   -2.5039 H         1 <0>         0.0873
     61 H20        -1.9381  -11.4700   -3.6044 H         1 <0>         0.0461
     62 H21         0.3896  -12.1406   -3.4625 H         1 <0>         0.1231
     63 H22         1.9820  -13.9072   -2.8340 H         1 <0>         0.1306
     64 H23         1.3305  -15.6349   -1.2083 H         1 <0>         0.1323
     65 H24        -2.5263  -13.8028   -0.8337 H         1 <0>         0.1373
     66 H25         0.8467  -16.8941   -0.0056 H         1 <0>         0.1668
     67 H26        -4.2233  -17.3472    2.6414 H         1 <0>         0.4244
     68 H27        -4.5285  -15.9748    1.7215 H         1 <0>         0.4296
     69 H28         1.5509  -21.1397    2.9632 H         1 <0>         0.1632
     70 H29         1.2566  -23.1993    4.6769 H         1 <0>         0.1597
     71 H30        -1.1716  -23.0569    5.6491 H         1 <0>         0.2135
@<TRIPOS>BOND
     1    1    2 1
     2    1   42 1
     3    1   43 1
     4    1   44 1
     5    2    3 1
     6    3    4 1
     7    3   45 1
     8    3   46 1
     9    4    5 1
    10    4   47 1
    11    4   48 1
    12    5    6 1
    13    6   11 ar
    14    6    7 ar
    15    7    8 ar
    16    7   49 1
    17    8    9 ar
    18    8   50 1
    19    9   10 ar
    20    9   14 1
    21   10   11 ar
    22   10   51 1
    23   11   12 1
    24   12   13 3
    25   14   19 1
    26   14   15 1
    27   15   16 1
    28   15   52 1
    29   15   53 1
    30   16   17 1
    31   16   54 1
    32   16   55 1
    33   17   18 1
    34   17   20 1
    35   18   19 1
    36   18   56 1
    37   18   57 1
    38   19   58 1
    39   19   59 1
    40   20   21 1
    41   20   60 1
    42   20   61 1
    43   21   26 ar
    44   21   22 ar
    45   22   23 ar
    46   22   62 1
    47   23   24 ar
    48   23   63 1
    49   24   25 ar
    50   24   64 1
    51   25   26 ar
    52   25   27 1
    53   26   65 1
    54   27   35 1
    55   27   28 2
    56   28   29 1
    57   28   66 1
    58   29   33 1
    59   29   30 2
    60   30   31 1
    61   31   32 2
    62   31   37 1
    63   32   33 1
    64   33   34 1
    65   34   35 2
    66   34   36 1
    67   36   67 1
    68   36   68 1
    69   37   41 1
    70   37   38 2
    71   38   39 1
    72   38   69 1
    73   39   40 2
    74   39   70 1
    75   40   41 1
    76   40   71 1
@<TRIPOS>MOLECULE
CHEMBL1095695
   29    31     0     0     0
SMALL
USER_CHARGES

@<TRIPOS>ATOM
      1 C1         -0.0184    1.5028    0.0103 C.3       1 <0>        -0.1142
      2 C2          0.0021   -0.0041    0.0020 C.2       1 <0>         0.4115
      3 N1          0.0053   -0.6386   -1.1399 N.2       1 <0>        -0.4879
      4 C3          0.0231   -1.9687   -1.1809 C.2       1 <0>         0.1036
      5 C4          0.0389   -2.7471   -0.0161 C.2       1 <0>        -0.2396
      6 C5          0.0582   -4.2044   -0.2124 C.2       1 <0>        -0.0732
      7 C6          0.0610   -4.6462   -1.4817 C.2       1 <0>        -0.1984
      8 S1          0.0342   -3.1752   -2.4803 S.3       1 <0>         0.1860
      9 C7          0.0869   -6.1490   -1.5600 C.3       1 <0>        -0.0323
     10 C8          0.5347   -6.6029   -0.1532 C.3       1 <0>        -0.1172
     11 C9          0.0737   -5.4192    0.7196 C.3       1 <0>        -0.0626
     12 C10         0.0347   -2.0225    1.2198 C.2       1 <0>         0.5544
     13 O1          0.0482   -2.6132    2.2860 O.2       1 <0>        -0.5149
     14 N2          0.0224   -0.6764    1.1815 N.am      1 <0>        -0.5271
     15 C11         0.0242    0.0776    2.4376 C.3       1 <0>         0.2030
     16 C12        -1.3628    0.3114    2.8716 C.1       1 <0>        -0.2287
     17 C13        -2.4690    0.4978    3.2177 C.1       1 <0>        -0.1453
     18 H1          1.0042    1.8801    0.0026 H         1 <0>         0.1075
     19 H2         -0.5455    1.8639   -0.8728 H         1 <0>         0.1099
     20 H3         -0.5286    1.8543    0.9071 H         1 <0>         0.0935
     21 H4         -0.9071   -6.5353   -1.7857 H         1 <0>         0.0884
     22 H5          0.8038   -6.4784   -2.3121 H         1 <0>         0.0830
     23 H6          0.0293   -7.5233    0.1391 H         1 <0>         0.0865
     24 H7          1.6172   -6.7227   -0.1081 H         1 <0>         0.0781
     25 H8          0.7759   -5.2580    1.5375 H         1 <0>         0.0797
     26 H9         -0.9261   -5.6065    1.1115 H         1 <0>         0.0820
     27 H10         0.5531   -0.4915    3.2022 H         1 <0>         0.1259
     28 H11         0.5238    1.0345    2.2863 H         1 <0>         0.1238
     29 H12        -3.4584    0.6646    3.5272 H         1 <0>         0.2245
@<TRIPOS>BOND
     1    1    2 1
     2    1   18 1
     3    1   19 1
     4    1   20 1
     5    2   14 1
     6    2    3 2
     7    3    4 1
     8    4    8 1
     9    4    5 2
    10    5    6 1
    11    5   12 1
    12    6   11 1
    13    6    7 2
    14    7    8 1
    15    7    9 1
    16    9   10 1
    17    9   21 1
    18    9   22 1
    19   10   11 1
    20   10   23 1
    21   10   24 1
    22   11   25 1
    23   11   26 1
    24   12   13 2
    25   12   14 am
    26   14   15 1
    27   15   16 1
    28   15   27 1
    29   15   28 1
    30   16   17 3
    31   17   29 1
@<TRIPOS>MOLECULE
CHEMBL610992
   58    61     0     0     0
SMALL
USER_CHARGES

@<TRIPOS>ATOM
      1 C1         -0.0164    1.3599    0.0095 C.2       1 <0>         0.2768
      2 N1          1.2003    1.8205    0.0004 N.2       1 <0>        -0.4606
      3 C2          2.0747    0.7847   -0.0135 C.ar      1 <0>        -0.1325
      4 C3          3.4762    0.6765   -0.0275 C.ar      1 <0>         0.5411
      5 N2          4.0192   -0.5358   -0.0392 N.ar      1 <0>        -0.6321
      6 C4          3.2640   -1.6252   -0.0378 C.ar      1 <0>         0.5673
      7 N3          1.9440   -1.5694   -0.0249 N.ar      1 <0>        -0.5681
      8 C5          1.3163   -0.3974   -0.0126 C.ar      1 <0>         0.3462
      9 N4          0.0021   -0.0041    0.0020 N.pl3     1 <0>        -0.4623
     10 C6         -1.1670   -0.8869    0.0089 C.3       1 <0>         0.3139
     11 C7         -1.5289   -1.2880   -1.4374 C.3       1 <0>         0.0764
     12 H1         -1.1660   -2.2904   -1.6643 H         1 <0>         0.0993
     13 C8         -3.0814   -1.2553   -1.4098 C.3       1 <0>         0.0474
     14 H2         -3.4872   -2.1902   -1.0232 H         1 <0>         0.0935
     15 C9         -3.3335   -0.0870   -0.4237 C.3       1 <0>         0.0513
     16 H3         -3.2628    0.8686   -0.9433 H         1 <0>         0.0987
     17 O1         -2.2939   -0.1968    0.5615 O.3       1 <0>        -0.3458
     18 C10        -4.7077   -0.2333    0.2327 C.3       1 <0>         0.0779
     19 O2         -4.9704    0.9106    1.0480 O.3       1 <0>        -0.5628
     20 O3         -3.6134   -0.9625   -2.7033 O.3       1 <0>        -0.5426
     21 O4         -1.0127   -0.3388   -2.3726 O.3       1 <0>        -0.5344
     22 O5          3.8669   -2.8386   -0.0506 O.3       1 <0>        -0.2863
     23 C11         5.2958   -2.8529   -0.0648 C.3       1 <0>         0.0780
     24 C12         5.7912   -4.3004   -0.0778 C.3       1 <0>        -0.1216
     25 C13         7.3210   -4.3158   -0.0930 C.3       1 <0>        -0.1103
     26 C14         7.8165   -5.7633   -0.1060 C.3       1 <0>        -0.0854
     27 C15         7.4177   -6.4506    1.2016 C.3       1 <0>        -0.1176
     28 C16         7.9131   -7.8981    1.1886 C.3       1 <0>        -0.1209
     29 C17         9.4366   -7.9145    1.0477 C.3       1 <0>        -0.1209
     30 C18         9.8353   -7.2272   -0.2598 C.3       1 <0>        -0.1204
     31 C19         9.3399   -5.7797   -0.2468 C.3       1 <0>        -0.1148
     32 N5          4.2726    1.8079   -0.0295 N.pl3     1 <0>        -0.8135
     33 H4         -0.9091    1.9676    0.0254 H         1 <0>         0.2164
     34 H5         -0.9536   -1.7783    0.5988 H         1 <0>         0.1370
     35 H6         -5.4727   -0.3123   -0.5397 H         1 <0>         0.0636
     36 H7         -4.7214   -1.1309    0.8509 H         1 <0>         0.0593
     37 H8         -5.8269    0.8859    1.4962 H         1 <0>         0.3856
     38 H9         -4.5794   -0.9319   -2.7335 H         1 <0>         0.3901
     39 H10        -1.2138   -0.5466   -3.2954 H         1 <0>         0.3934
     40 H11         5.6555   -2.3378   -0.9555 H         1 <0>         0.0697
     41 H12         5.6731   -2.3477    0.8244 H         1 <0>         0.0699
     42 H13         5.4315   -4.8156    0.8129 H         1 <0>         0.0767
     43 H14         5.4139   -4.8056   -0.9669 H         1 <0>         0.0738
     44 H15         7.6807   -3.8006   -0.9837 H         1 <0>         0.0668
     45 H16         7.6983   -3.8106    0.7962 H         1 <0>         0.0667
     46 H17         7.3681   -6.2932   -0.9464 H         1 <0>         0.0714
     47 H18         7.8661   -5.9206    2.0420 H         1 <0>         0.0617
     48 H19         6.3324   -6.4389    1.3019 H         1 <0>         0.0647
     49 H20         7.6291   -8.3877    2.1201 H         1 <0>         0.0605
     50 H21         7.4648   -8.4280    0.3482 H         1 <0>         0.0608
     51 H22         9.8849   -7.3846    1.8881 H         1 <0>         0.0607
     52 H23         9.7895   -8.9457    1.0384 H         1 <0>         0.0596
     53 H24        10.9206   -7.2389   -0.3602 H         1 <0>         0.0606
     54 H25         9.3869   -7.7572   -1.1002 H         1 <0>         0.0609
     55 H26         9.6239   -5.2901   -1.1783 H         1 <0>         0.0615
     56 H27         9.7882   -5.2498    0.5936 H         1 <0>         0.0620
     57 H28         3.8649    2.6880   -0.0212 H         1 <0>         0.4216
     58 H29         5.2386    1.7210   -0.0392 H         1 <0>         0.4101
@<TRIPOS>BOND
     1    1    9 1
     2    1    2 2
     3    1   33 1
     4    2    3 1
     5    3    8 ar
     6    3    4 ar
     7    4    5 ar
     8    4   32 1
     9    5    6 ar
    10    6    7 ar
    11    6   22 1
    12    7    8 ar
    13    8    9 1
    14    9   10 1
    15   10   17 1
    16   10   11 1
    17   10   34 1
    18   11   12 1
    19   11   13 1
    20   11   21 1
    21   13   14 1
    22   13   15 1
    23   13   20 1
    24   15   16 1
    25   15   17 1
    26   15   18 1
    27   18   19 1
    28   18   35 1
    29   18   36 1
    30   19   37 1
    31   20   38 1
    32   21   39 1
    33   22   23 1
    34   23   24 1
    35   23   40 1
    36   23   41 1
    37   24   25 1
    38   24   42 1
    39   24   43 1
    40   25   26 1
    41   25   44 1
    42   25   45 1
    43   26   31 1
    44   26   27 1
    45   26   46 1
    46   27   28 1
    47   27   47 1
    48   27   48 1
    49   28   29 1
    50   28   49 1
    51   28   50 1
    52   29   30 1
    53   29   51 1
    54   29   52 1
    55   30   31 1
    56   30   53 1
    57   30   54 1
    58   31   55 1
    59   31   56 1
    60   32   57 1
    61   32   58 1
@<TRIPOS>MOLECULE
CHEMBL185967
   54    59     0     0     0
SMALL
USER_CHARGES

@<TRIPOS>ATOM
      1 C1         -0.4210    0.7092    0.7982 C.ar      1 <0>        -0.1062
      2 C2          0.6553    1.5888    0.6999 C.ar      1 <0>        -0.0898
      3 C3          1.9215    1.1301    0.5046 C.ar      1 <0>        -0.0920
      4 C4          2.1541   -0.2524    0.3995 C.ar      1 <0>         0.1454
      5 C5          1.0582   -1.1450    0.4998 C.ar      1 <0>        -0.1040
      6 C6         -0.2348   -0.6360    0.7014 C.ar      1 <0>        -0.0977
      7 C7          1.2927   -2.5291    0.3944 C.ar      1 <0>        -0.0385
      8 C8          2.5759   -2.9525    0.1988 C.ar      1 <0>        -0.1319
      9 C9          3.6100   -2.0210    0.1088 C.ar      1 <0>         0.2258
     10 N1          3.3873   -0.7317    0.2080 N.ar      1 <0>        -0.4634
     11 Cl1         5.2339   -2.5819   -0.1402 Cl        1 <0>        -0.0129
     12 C10         2.8747   -4.4249    0.0805 C.3       1 <0>         0.1002
     13 N2          3.1410   -4.7592   -1.3249 N.3       1 <0>        -0.5300
     14 C11         1.9384   -4.5721   -2.1475 C.3       1 <0>         0.0360
     15 C12         2.3010   -4.7543   -3.6252 C.3       1 <0>         0.1050
     16 N3          2.9680   -6.0552   -3.7857 N.pl3     1 <0>        -0.5439
     17 C13         4.0988   -6.3714   -2.8999 C.3       1 <0>         0.1189
     18 C14         3.6654   -6.1256   -1.4507 C.3       1 <0>         0.0383
     19 C15         2.5447   -6.9548   -4.7420 C.2       1 <0>         0.6554
     20 N4          1.5942   -6.5924   -5.6079 N.pl3     1 <0>        -0.6005
     21 C16         1.1701   -7.4336   -6.5336 C.cat     1 <0>         0.7690
     22 N5          1.7121   -8.6839   -6.6011 N.pl3     1 <0>        -0.4041
     23 C17         2.6867   -9.0461   -5.7082 C.2       1 <0>         0.5464
     24 N6          3.0912   -8.1587   -4.7881 N.2       1 <0>        -0.5081
     25 N7          3.0381  -10.2908   -5.9854 N.2       1 <0>        -0.4675
     26 C18         2.3230  -10.7396   -7.0248 C.2       1 <0>         0.4160
     27 N8          1.5013   -9.7904   -7.4314 N.2       1 <0>        -0.2963
     28 C19         2.4365  -12.0861   -7.6229 C.2       1 <0>        -0.0054
     29 C20         3.2743  -13.0742   -7.2106 C.2       1 <0>        -0.0891
     30 C21         3.0498  -14.1768   -8.0585 C.2       1 <0>        -0.2217
     31 C22         2.0960  -13.8111   -8.9375 C.2       1 <0>         0.0248
     32 O1          1.7237  -12.5497   -8.6678 O.3       1 <0>        -0.1585
     33 N9          0.1944   -7.0543   -7.4179 N.pl3     1 <0>        -0.7473
     34 H1         -1.4153    1.0995    0.9578 H         1 <0>         0.1340
     35 H2          0.4817    2.6518    0.7796 H         1 <0>         0.1374
     36 H3          2.7445    1.8254    0.4302 H         1 <0>         0.1418
     37 H4         -1.0769   -1.3078    0.7795 H         1 <0>         0.1335
     38 H5          0.4799   -3.2366    0.4668 H         1 <0>         0.1458
     39 H6          3.7494   -4.6678    0.6838 H         1 <0>         0.1039
     40 H7          2.0184   -4.9989    0.4346 H         1 <0>         0.0586
     41 H8          1.1859   -5.3080   -1.8643 H         1 <0>         0.0515
     42 H9          1.5432   -3.5684   -1.9910 H         1 <0>         0.1050
     43 H10         1.3946   -4.7304   -4.2303 H         1 <0>         0.0800
     44 H11         2.9745   -3.9564   -3.9380 H         1 <0>         0.1176
     45 H12         4.3810   -7.4168   -3.0253 H         1 <0>         0.1242
     46 H13         4.9451   -5.7290   -3.1429 H         1 <0>         0.1077
     47 H14         4.5227   -6.2486   -0.7889 H         1 <0>         0.1120
     48 H15         2.8888   -6.8399   -1.1772 H         1 <0>         0.0524
     49 H16         3.9765  -13.0237   -6.3916 H         1 <0>         0.1701
     50 H17         3.5482  -15.1339   -8.0129 H         1 <0>         0.1684
     51 H18         1.6944  -14.4314   -9.7251 H         1 <0>         0.2224
     52 H19        -0.1881   -6.1644   -7.3657 H         1 <0>         0.4466
     53 H20        -0.1138   -7.6756   -8.0960 H         1 <0>         0.4601
     54 H21         1.2114   -5.7026   -5.5561 H         1 <0>         0.4544
@<TRIPOS>BOND
     1    1    6 ar
     2    1    2 ar
     3    1   34 1
     4    2    3 ar
     5    2   35 1
     6    3    4 ar
     7    3   36 1
     8    4   10 ar
     9    4    5 ar
    10    5    6 ar
    11    5    7 ar
    12    6   37 1
    13    7    8 ar
    14    7   38 1
    15    8    9 ar
    16    8   12 1
    17    9   10 ar
    18    9   11 1
    19   12   13 1
    20   12   39 1
    21   12   40 1
    22   13   18 1
    23   13   14 1
    24   14   15 1
    25   14   41 1
    26   14   42 1
    27   15   16 1
    28   15   43 1
    29   15   44 1
    30   16   17 1
    31   16   19 1
    32   17   18 1
    33   17   45 1
    34   17   46 1
    35   18   47 1
    36   18   48 1
    37   19   24 2
    38   19   20 1
    39   20   21 2
    40   20   54 1
    41   21   22 1
    42   21   33 1
    43   22   27 1
    44   22   23 1
    45   23   24 1
    46   23   25 2
    47   25   26 1
    48   26   27 2
    49   26   28 1
    50   28   32 1
    51   28   29 2
    52   29   30 1
    53   29   49 1
    54   30   31 2
    55   30   50 1
    56   31   32 1
    57   31   51 1
    58   33   52 1
    59   33   53 1
@<TRIPOS>MOLECULE
CHEMBL551368
   39    41     0     0     0
SMALL
USER_CHARGES

@<TRIPOS>ATOM
      1 C1         -0.0184    1.5028    0.0103 C.3       1 <0>        -0.1236
      2 C2          0.0021   -0.0041    0.0020 C.ar      1 <0>        -0.0637
      3 C3          0.0057   -0.6888   -1.1991 C.ar      1 <0>        -0.1231
      4 C4          0.0245   -2.0707   -1.2067 C.ar      1 <0>        -0.1054
      5 C5          0.0400   -2.7685   -0.0132 C.ar      1 <0>        -0.1276
      6 C6          0.0373   -2.0840    1.1875 C.ar      1 <0>        -0.0941
      7 C7          0.0229   -0.7015    1.1951 C.ar      1 <0>        -0.1149
      8 C8          0.0252    0.0449    2.5043 C.3       1 <0>         0.1594
      9 N1         -1.3380    0.4767    2.8227 N.am      1 <0>        -0.7016
     10 C9         -1.5792    1.1669    3.9549 C.2       1 <0>         0.5722
     11 O1         -0.6661    1.4309    4.7115 O.2       1 <0>        -0.5164
     12 C10        -2.9603    1.6043    4.2775 C.ar      1 <0>         0.1829
     13 C11        -3.2188    2.3221    5.4407 C.ar      1 <0>        -0.2143
     14 C12        -4.5406    2.7127    5.7010 C.ar      1 <0>         0.3048
     15 N2         -5.4942    2.3841    4.8301 N.ar      1 <0>        -0.5452
     16 C13        -5.2047    1.6997    3.7344 C.ar      1 <0>         0.5812
     17 N3         -3.9685    1.3195    3.4539 N.ar      1 <0>        -0.5524
     18 N4         -6.2234    1.3771    2.8542 N.pl3     1 <0>        -0.8159
     19 C14        -4.8700    3.4749    6.9200 C.2       1 <0>        -0.0053
     20 C15        -6.1099    3.9039    7.2838 C.2       1 <0>        -0.1263
     21 C16        -5.9607    4.5835    8.5069 C.2       1 <0>        -0.2242
     22 C17        -4.6514    4.5375    8.8280 C.2       1 <0>        -0.0038
     23 O2         -3.9971    3.8630    7.8704 O.3       1 <0>        -0.1620
     24 H1          1.0042    1.8801    0.0026 H         1 <0>         0.0745
     25 H2         -0.5455    1.8639   -0.8728 H         1 <0>         0.0691
     26 H3         -0.5286    1.8543    0.9071 H         1 <0>         0.0695
     27 H4         -0.0064   -0.1437   -2.1314 H         1 <0>         0.1244
     28 H5          0.0266   -2.6056   -2.1449 H         1 <0>         0.1241
     29 H6          0.0540   -3.8484   -0.0191 H         1 <0>         0.1246
     30 H7          0.0491   -2.6290    2.1199 H         1 <0>         0.1249
     31 H8          0.3931   -0.6092    3.2948 H         1 <0>         0.0809
     32 H9          0.6733    0.9176    2.4238 H         1 <0>         0.0831
     33 H10        -2.0671    0.2659    2.2186 H         1 <0>         0.4139
     34 H11        -2.4223    2.5718    6.1260 H         1 <0>         0.1628
     35 H12        -7.1340    1.6521    3.0444 H         1 <0>         0.4179
     36 H13        -6.0267    0.8760    2.0472 H         1 <0>         0.4181
     37 H14        -7.0299    3.7525    6.7387 H         1 <0>         0.1604
     38 H15        -6.7462    5.0534    9.0801 H         1 <0>         0.1576
     39 H16        -4.2044    4.9690    9.7113 H         1 <0>         0.2132
@<TRIPOS>BOND
     1    1    2 1
     2    1   24 1
     3    1   25 1
     4    1   26 1
     5    2    7 ar
     6    2    3 ar
     7    3    4 ar
     8    3   27 1
     9    4    5 ar
    10    4   28 1
    11    5    6 ar
    12    5   29 1
    13    6    7 ar
    14    6   30 1
    15    7    8 1
    16    8    9 1
    17    8   31 1
    18    8   32 1
    19    9   10 am
    20    9   33 1
    21   10   11 2
    22   10   12 1
    23   12   17 ar
    24   12   13 ar
    25   13   14 ar
    26   13   34 1
    27   14   15 ar
    28   14   19 1
    29   15   16 ar
    30   16   17 ar
    31   16   18 1
    32   18   35 1
    33   18   36 1
    34   19   23 1
    35   19   20 2
    36   20   21 1
    37   20   37 1
    38   21   22 2
    39   21   38 1
    40   22   23 1
    41   22   39 1
@<TRIPOS>MOLECULE
CHEMBL176039
   53    57     0     0     0
SMALL
USER_CHARGES

@<TRIPOS>ATOM
      1 C1         -0.0162    1.3434    0.0094 C.2       1 <0>        -0.2225
      2 C2          1.3251    1.7745   -0.0011 C.2       1 <0>        -0.0797
      3 C3          2.0961    0.6548   -0.0144 C.2       1 <0>        -0.0187
      4 O1          1.2796   -0.4166   -0.0124 O.3       1 <0>        -0.1577
      5 C4          0.0021   -0.0041    0.0020 C.2       1 <0>         0.0374
      6 C5          3.5734    0.6193   -0.0287 C.2       1 <0>         0.4204
      7 N1          4.3742    1.6925   -0.0248 N.2       1 <0>        -0.4451
      8 C6          5.6386    1.3040   -0.0409 C.2       1 <0>         0.5287
      9 N2          6.8046    1.9657   -0.0448 N.2       1 <0>        -0.4866
     10 C7          7.9464    1.2979   -0.0627 C.2       1 <0>         0.6622
     11 N3          7.9670   -0.0378   -0.0777 N.pl3     1 <0>        -0.6002
     12 C8          6.8416   -0.7289   -0.0744 C.cat     1 <0>         0.7696
     13 N4          5.6489   -0.0664   -0.0556 N.pl3     1 <0>        -0.4000
     14 N5          4.3107   -0.4751   -0.0417 N.2       1 <0>        -0.2797
     15 N6          6.8714   -2.0989   -0.0903 N.pl3     1 <0>        -0.7350
     16 N7          9.1377    1.9935   -0.0665 N.pl3     1 <0>        -0.6954
     17 C9          9.1306    3.4584   -0.0508 C.3       1 <0>         0.1040
     18 C10        10.5705    3.9755   -0.0588 C.3       1 <0>         0.0075
     19 H1         11.0531    3.7138   -1.0005 H         1 <0>         0.1584
     20 C11        10.5793    5.5074    0.1276 C.3       1 <0>        -0.1299
     21 C12        10.8419    5.6729    1.6476 C.3       1 <0>        -0.1407
     22 C13        11.8070    4.4943    1.9286 C.3       1 <0>        -0.0246
     23 N8         11.3198    3.3906    1.0683 N.4       1 <0>        -0.3992
     24 C14        12.4599    2.6185    0.5564 C.3       1 <0>         0.0462
     25 C15        13.1500    1.9227    1.7012 C.ar      1 <0>        -0.2500
     26 C16        14.1756    2.5581    2.3802 C.ar      1 <0>         0.1949
     27 C17        14.8095    1.9190    3.4319 C.ar      1 <0>        -0.1882
     28 C18        14.4177    0.6447    3.8048 C.ar      1 <0>         0.2119
     29 C19        13.3915    0.0098    3.1265 C.ar      1 <0>        -0.1918
     30 C20        12.7547    0.6506    2.0775 C.ar      1 <0>         0.1816
     31 F1         11.7501    0.0327    1.4185 F         1 <0>        -0.1290
     32 F2         15.0370    0.0207    4.8306 F         1 <0>        -0.0946
     33 F3         14.5580    3.8016    2.0162 F         1 <0>        -0.1051
     34 H2         -0.8931    1.9737    0.0252 H         1 <0>         0.1717
     35 H3          1.6734    2.7967    0.0008 H         1 <0>         0.1709
     36 H4         -0.8667   -0.6456    0.0069 H         1 <0>         0.2261
     37 H5          7.7217   -2.5654   -0.1039 H         1 <0>         0.4499
     38 H6          6.0421   -2.6021   -0.0878 H         1 <0>         0.4645
     39 H7          9.9800    1.5127   -0.0796 H         1 <0>         0.4198
     40 H8          8.6066    3.8287   -0.9319 H         1 <0>         0.1432
     41 H9          8.6234    3.8096    0.8478 H         1 <0>         0.1230
     42 H10        11.3814    5.9618   -0.4538 H         1 <0>         0.1170
     43 H11         9.6143    5.9344   -0.1455 H         1 <0>         0.1265
     44 H12        11.3210    6.6289    1.8593 H         1 <0>         0.1291
     45 H13         9.9188    5.5660    2.2173 H         1 <0>         0.1032
     46 H14        12.8266    4.7652    1.6548 H         1 <0>         0.1462
     47 H15        11.7589    4.2066    2.9789 H         1 <0>         0.1368
     48 H16        12.1044    1.8764   -0.1586 H         1 <0>         0.1390
     49 H17        13.1621    3.2908    0.0634 H         1 <0>         0.1581
     50 H18        15.6101    2.4143    3.9611 H         1 <0>         0.1775
     51 H19        13.0860   -0.9845    3.4172 H         1 <0>         0.1731
     52 H20         8.8171   -0.5047   -0.0913 H         1 <0>         0.4592
     53 H21        10.7135    2.7856    1.6016 H         1 <0>         0.4161
@<TRIPOS>BOND
     1    1    5 2
     2    1    2 1
     3    1   34 1
     4    2    3 2
     5    2   35 1
     6    3    4 1
     7    3    6 1
     8    4    5 1
     9    5   36 1
    10    6   14 2
    11    6    7 1
    12    7    8 2
    13    8   13 1
    14    8    9 1
    15    9   10 2
    16   10   11 1
    17   10   16 1
    18   11   12 2
    19   11   52 1
    20   12   13 1
    21   12   15 1
    22   13   14 1
    23   15   37 1
    24   15   38 1
    25   16   17 1
    26   16   39 1
    27   17   18 1
    28   17   40 1
    29   17   41 1
    30   18   19 1
    31   18   23 1
    32   18   20 1
    33   20   21 1
    34   20   42 1
    35   20   43 1
    36   21   22 1
    37   21   44 1
    38   21   45 1
    39   22   23 1
    40   22   46 1
    41   22   47 1
    42   23   24 1
    43   23   53 1
    44   24   25 1
    45   24   48 1
    46   24   49 1
    47   25   30 ar
    48   25   26 ar
    49   26   27 ar
    50   26   33 1
    51   27   28 ar
    52   27   50 1
    53   28   29 ar
    54   28   32 1
    55   29   30 ar
    56   29   51 1
    57   30   31 1
@<TRIPOS>MOLECULE
CHEMBL360446
   36    39     0     0     0
SMALL
USER_CHARGES

@<TRIPOS>ATOM
      1 C1         -0.0166    1.3755    0.0096 C.ar      1 <0>        -0.1253
      2 C2          1.1704    2.0862    0.0021 C.ar      1 <0>        -0.0768
      3 C3          2.3822    1.4194   -0.0131 C.ar      1 <0>        -0.1025
      4 C4          2.4135    0.0396   -0.0213 C.ar      1 <0>        -0.0485
      5 C5          1.2207   -0.6820   -0.0138 C.ar      1 <0>        -0.0617
      6 C6          0.0021   -0.0041    0.0020 C.ar      1 <0>        -0.0799
      7 C7          1.2476   -2.1638   -0.0230 C.2       1 <0>         0.2542
      8 C8          0.0616   -2.8758   -0.0213 C.2       1 <0>        -0.2182
      9 C9          0.1240   -4.2809   -0.0307 C.2       1 <0>         0.3541
     10 N1         -0.7923   -5.2365   -0.0319 N.2       1 <0>        -0.5238
     11 C10        -0.1932   -6.4315   -0.0428 C.2       1 <0>         0.3541
     12 N2          1.1172   -6.2646   -0.0487 N.2       1 <0>        -0.3213
     13 N3          1.3558   -4.8843   -0.0411 N.pl3     1 <0>        -0.3621
     14 C11         2.4858   -4.1241   -0.0422 C.2       1 <0>         0.6549
     15 N4          2.4224   -2.8123   -0.0386 N.2       1 <0>        -0.5503
     16 N5          3.7150   -4.7410   -0.0528 N.pl3     1 <0>        -0.8070
     17 C12        -0.8885   -7.7358   -0.0471 C.2       1 <0>         0.0363
     18 C13        -2.2350   -7.9219   -0.0465 C.2       1 <0>        -0.1265
     19 C14        -2.4523   -9.3140   -0.0515 C.2       1 <0>        -0.2190
     20 C15        -1.2401   -9.9027   -0.0549 C.2       1 <0>        -0.0076
     21 O1         -0.2978   -8.9463   -0.0580 O.3       1 <0>        -0.1607
     22 C16         3.6706    2.2009   -0.0212 C.3       1 <0>         0.1166
     23 O2          4.0908    2.4407    1.3234 O.3       1 <0>        -0.5675
     24 H1         -0.9597    1.9016    0.0260 H         1 <0>         0.1335
     25 H2          1.1508    3.1661    0.0077 H         1 <0>         0.1279
     26 H3          3.3602   -0.4800   -0.0338 H         1 <0>         0.1373
     27 H4         -0.9251   -0.5578    0.0079 H         1 <0>         0.1346
     28 H5         -0.8898   -2.3648   -0.0125 H         1 <0>         0.1676
     29 H6          3.7717   -5.7093   -0.0593 H         1 <0>         0.4246
     30 H7          4.5253   -4.2078   -0.0537 H         1 <0>         0.4297
     31 H8         -2.9920   -7.1517   -0.0430 H         1 <0>         0.1632
     32 H9         -3.4093   -9.8146   -0.0522 H         1 <0>         0.1598
     33 H10        -1.0570  -10.9671   -0.0587 H         1 <0>         0.2135
     34 H11         4.4379    1.6312   -0.5455 H         1 <0>         0.0570
     35 H12         3.5148    3.1531   -0.5284 H         1 <0>         0.0573
     36 H13         4.9157    2.9403    1.3946 H         1 <0>         0.3826
@<TRIPOS>BOND
     1    1    6 ar
     2    1    2 ar
     3    1   24 1
     4    2    3 ar
     5    2   25 1
     6    3    4 ar
     7    3   22 1
     8    4    5 ar
     9    4   26 1
    10    5    6 ar
    11    5    7 1
    12    6   27 1
    13    7   15 1
    14    7    8 2
    15    8    9 1
    16    8   28 1
    17    9   13 1
    18    9   10 2
    19   10   11 1
    20   11   12 2
    21   11   17 1
    22   12   13 1
    23   13   14 1
    24   14   15 2
    25   14   16 1
    26   16   29 1
    27   16   30 1
    28   17   21 1
    29   17   18 2
    30   18   19 1
    31   18   31 1
    32   19   20 2
    33   19   32 1
    34   20   21 1
    35   20   33 1
    36   22   23 1
    37   22   34 1
    38   22   35 1
    39   23   36 1
@<TRIPOS>MOLECULE
CHEMBL561163
   39    41     0     0     0
SMALL
USER_CHARGES

@<TRIPOS>ATOM
      1 C1         -0.0166    1.3736    0.0096 C.ar      1 <0>        -0.1374
      2 C2          1.1700    2.0889    0.0021 C.ar      1 <0>        -0.0394
      3 C3          2.3829    1.4297   -0.0134 C.ar      1 <0>        -0.1996
      4 C4          2.4207    0.0432   -0.0216 C.ar      1 <0>         0.1725
      5 C5          1.2226   -0.6842   -0.0136 C.ar      1 <0>        -0.1524
      6 C6          0.0021   -0.0041    0.0020 C.ar      1 <0>        -0.0496
      7 C7          1.2500   -2.1588   -0.0228 C.2       1 <0>         0.5569
      8 O1          2.3140   -2.7469   -0.0372 O.2       1 <0>        -0.4279
      9 N1          0.0956   -2.8543   -0.0150 N.am      1 <0>        -0.6528
     10 C8          0.1214   -4.2441   -0.0236 C.ar      1 <0>         0.5171
     11 C9         -1.0655   -4.9710   -0.0215 C.ar      1 <0>        -0.2373
     12 C10        -0.9893   -6.3657   -0.0309 C.ar      1 <0>         0.3900
     13 N2          0.2123   -6.9485   -0.0415 N.ar      1 <0>        -0.5575
     14 C11         1.3171   -6.2205   -0.0430 C.ar      1 <0>         0.6279
     15 N3          1.2805   -4.8960   -0.0394 N.ar      1 <0>        -0.5453
     16 N4          2.5445   -6.8600   -0.0541 N.pl3     1 <0>        -0.7911
     17 C12        -2.2181   -7.1830   -0.0287 C.2       1 <0>        -0.0392
     18 C13        -2.3855   -8.3754   -0.6628 C.2       1 <0>        -0.1044
     19 C14        -3.7013   -8.7966   -0.3931 C.2       1 <0>        -0.2237
     20 C15        -4.2676   -7.8513    0.3843 C.2       1 <0>         0.0135
     21 O2         -3.3676   -6.8812    0.6063 O.3       1 <0>        -0.1608
     22 N5         -2.3763   -4.2831   -0.0092 N.pl3     1 <0>         0.0387
     23 O3         -2.9176   -3.9951   -1.0512 O.2       1 <0>        -0.1344
     24 O4         -2.9054   -4.0092    1.0428 O.3       1 <0>        -0.1210
     25 O5          3.6117   -0.6059   -0.0378 O.3       1 <0>        -0.2824
     26 C16         4.7906    0.2017   -0.0456 C.3       1 <0>         0.6007
     27 F1          4.8146    1.0029    1.1010 F         1 <0>        -0.1636
     28 F2          5.9207   -0.6228   -0.0621 F         1 <0>        -0.1248
     29 F3          4.7907    1.0158   -1.1834 F         1 <0>        -0.1636
     30 H1         -0.9605    1.8983    0.0259 H         1 <0>         0.1455
     31 H2          1.1459    3.1686    0.0081 H         1 <0>         0.1452
     32 H3          3.3035    1.9943   -0.0195 H         1 <0>         0.1455
     33 H4         -0.9253   -0.5575    0.0082 H         1 <0>         0.1385
     34 H5         -0.7533   -2.3850   -0.0035 H         1 <0>         0.4211
     35 H6          2.5865   -7.8290   -0.0605 H         1 <0>         0.4244
     36 H7          3.3628   -6.3390   -0.0554 H         1 <0>         0.4269
     37 H8         -1.6510   -8.8974   -1.2581 H         1 <0>         0.1626
     38 H9         -4.1690   -9.7051   -0.7429 H         1 <0>         0.1631
     39 H10        -5.2771   -7.8731    0.7674 H         1 <0>         0.2179
@<TRIPOS>BOND
     1    1    6 ar
     2    1    2 ar
     3    1   30 1
     4    2    3 ar
     5    2   31 1
     6    3    4 ar
     7    3   32 1
     8    4    5 ar
     9    4   25 1
    10    5    6 ar
    11    5    7 1
    12    6   33 1
    13    7    8 2
    14    7    9 am
    15    9   10 1
    16    9   34 1
    17   10   15 ar
    18   10   11 ar
    19   11   12 ar
    20   11   22 1
    21   12   13 ar
    22   12   17 1
    23   13   14 ar
    24   14   15 ar
    25   14   16 1
    26   16   35 1
    27   16   36 1
    28   17   21 1
    29   17   18 2
    30   18   19 1
    31   18   37 1
    32   19   20 2
    33   19   38 1
    34   20   21 1
    35   20   39 1
    36   22   23 2
    37   22   24 1
    38   25   26 1
    39   26   27 1
    40   26   28 1
    41   26   29 1
@<TRIPOS>MOLECULE
CHEMBL174979
   41    44     0     0     0
SMALL
USER_CHARGES

@<TRIPOS>ATOM
      1 C1         -0.0162    1.3434    0.0094 C.2       1 <0>        -0.2191
      2 C2          1.3252    1.7744   -0.0011 C.2       1 <0>        -0.1297
      3 C3          2.0961    0.6548   -0.0144 C.2       1 <0>         0.0399
      4 O1          1.2797   -0.4166   -0.0124 O.3       1 <0>        -0.1611
      5 C4          0.0021   -0.0041    0.0020 C.2       1 <0>        -0.0108
      6 C5          3.5737    0.6193   -0.0287 C.2       1 <0>         0.3570
      7 N1          4.3730    1.6920   -0.0248 N.2       1 <0>        -0.5418
      8 C6          5.6386    1.3016   -0.0401 C.2       1 <0>         0.3811
      9 C7          6.8656    1.9861   -0.0443 C.2       1 <0>        -0.3158
     10 C8          8.0325    1.2463   -0.0628 C.2       1 <0>         0.4781
     11 N2          7.9812   -0.0912   -0.0761 N.2       1 <0>        -0.5891
     12 C9          6.8369   -0.7384   -0.0722 C.2       1 <0>         0.6831
     13 N3          5.6511   -0.0704   -0.0544 N.pl3     1 <0>        -0.3786
     14 N4          4.3106   -0.4761   -0.0417 N.2       1 <0>        -0.3342
     15 N5          6.8380   -2.1130   -0.0865 N.pl3     1 <0>        -0.8059
     16 N6          9.2607    1.8916   -0.0679 N.pl3     1 <0>        -0.7049
     17 C10        10.4992    1.1092   -0.0875 C.3       1 <0>         0.1332
     18 C11        11.7008    2.0563   -0.0893 C.3       1 <0>        -0.0933
     19 C12        12.9747    1.2515   -0.1094 C.ar      1 <0>        -0.0922
     20 C13        13.5664    0.8661    1.0793 C.ar      1 <0>        -0.0957
     21 C14        14.7345    0.1287    1.0636 C.ar      1 <0>        -0.1433
     22 C15        15.3135   -0.2256   -0.1463 C.ar      1 <0>         0.1049
     23 C16        14.7176    0.1620   -1.3377 C.ar      1 <0>        -0.1432
     24 C17        13.5468    0.8949   -1.3166 C.ar      1 <0>        -0.0957
     25 O2         16.4628   -0.9506   -0.1644 O.3       1 <0>        -0.5002
     26 H1         -0.8931    1.9736    0.0252 H         1 <0>         0.1587
     27 H2          1.6736    2.7966    0.0008 H         1 <0>         0.1625
     28 H3         -0.8667   -0.6456    0.0069 H         1 <0>         0.2124
     29 H4          6.8960    3.0656   -0.0338 H         1 <0>         0.1584
     30 H5          7.6784   -2.5973   -0.0992 H         1 <0>         0.4284
     31 H6          5.9984   -2.5988   -0.0837 H         1 <0>         0.4255
     32 H7          9.2994    2.8608   -0.0586 H         1 <0>         0.4174
     33 H8         10.5402    0.4719    0.7958 H         1 <0>         0.0712
     34 H9         10.5234    0.4897   -0.9840 H         1 <0>         0.0712
     35 H10        11.6597    2.6936   -0.9726 H         1 <0>         0.0822
     36 H11        11.6765    2.6758    0.8072 H         1 <0>         0.0823
     37 H12        13.1152    1.1421    2.0209 H         1 <0>         0.1278
     38 H13        15.1966   -0.1715    1.9924 H         1 <0>         0.1297
     39 H14        15.1665   -0.1125   -2.2808 H         1 <0>         0.1297
     40 H15        13.0801    1.1931   -2.2438 H         1 <0>         0.1278
     41 H16        16.3241   -1.9075   -0.1765 H         1 <0>         0.3922
@<TRIPOS>BOND
     1    1    5 2
     2    1    2 1
     3    1   26 1
     4    2    3 2
     5    2   27 1
     6    3    4 1
     7    3    6 1
     8    4    5 1
     9    5   28 1
    10    6   14 2
    11    6    7 1
    12    7    8 2
    13    8   13 1
    14    8    9 1
    15    9   10 2
    16    9   29 1
    17   10   11 1
    18   10   16 1
    19   11   12 2
    20   12   13 1
    21   12   15 1
    22   13   14 1
    23   15   30 1
    24   15   31 1
    25   16   17 1
    26   16   32 1
    27   17   18 1
    28   17   33 1
    29   17   34 1
    30   18   19 1
    31   18   35 1
    32   18   36 1
    33   19   24 ar
    34   19   20 ar
    35   20   21 ar
    36   20   37 1
    37   21   22 ar
    38   21   38 1
    39   22   23 ar
    40   22   25 1
    41   23   24 ar
    42   23   39 1
    43   24   40 1
    44   25   41 1
@<TRIPOS>MOLECULE
CHEMBL480380
   73    77     0     0     0
SMALL
USER_CHARGES

@<TRIPOS>ATOM
      1 C1          0.0086    1.4478    0.0065 C.3       1 <0>         0.0839
      2 N1          0.0345   -0.0170    0.0052 N.pl3     1 <0>        -0.5938
      3 C2          0.0467   -0.7505    1.2733 C.3       1 <0>         0.1075
      4 C3         -1.3913   -1.0314    1.7138 C.3       1 <0>        -0.0322
      5 N2         -1.3790   -1.7670    2.9853 N.4       1 <0>        -0.3773
      6 C4         -0.7604   -3.0829    2.7816 C.3       1 <0>        -0.0266
      7 C5         -0.6429   -3.8050    4.1279 C.3       1 <0>         0.1021
      8 N3         -1.9750   -3.8502    4.7506 N.pl3     1 <0>        -0.6452
      9 C6         -2.7378   -2.5961    4.8474 C.3       1 <0>         0.1028
     10 C7         -2.7564   -1.9311    3.4671 C.3       1 <0>        -0.0206
     11 C8         -2.5016   -5.0521    5.2366 C.ar      1 <0>         0.1572
     12 C9         -1.8160   -6.2427    5.0354 C.ar      1 <0>        -0.1426
     13 C10        -2.3363   -7.4285    5.5158 C.ar      1 <0>        -0.1046
     14 C11        -3.5432   -7.4302    6.1992 C.ar      1 <0>         0.1019
     15 C12        -4.2289   -6.2414    6.4003 C.ar      1 <0>        -0.1640
     16 C13        -3.7073   -5.0540    5.9255 C.ar      1 <0>        -0.1423
     17 O1         -4.0548   -8.5983    6.6720 O.3       1 <0>        -0.3054
     18 C14        -5.3017   -8.5264    7.3665 C.3       1 <0>         0.0620
     19 C15        -5.7144   -9.9282    7.8199 C.3       1 <0>         0.0599
     20 O2         -4.7743  -10.4142    8.7802 O.3       1 <0>        -0.3865
     21 C16        -5.0691  -11.7235    9.2710 C.3       1 <0>         0.0296
     22 C17         0.0475   -0.7095   -1.1970 C.2       1 <0>         0.4560
     23 C18         0.0417   -0.0157   -2.3919 C.2       1 <0>        -0.2946
     24 C19         0.0557   -0.7473   -3.5912 C.2       1 <0>         0.3747
     25 N4          0.0551   -0.4074   -4.8715 N.2       1 <0>        -0.5399
     26 C20         0.0728   -1.5094   -5.6266 C.2       1 <0>         0.3320
     27 N5          0.0851   -2.5739   -4.8494 N.2       1 <0>        -0.3326
     28 N6          0.0745   -2.1176   -3.5253 N.pl3     1 <0>        -0.3764
     29 C21         0.0793   -2.7392   -2.3141 C.2       1 <0>         0.6878
     30 N7          0.0712   -2.0480   -1.1960 N.2       1 <0>        -0.6072
     31 N8          0.0977   -4.1126   -2.2594 N.pl3     1 <0>        -0.8037
     32 C22         0.0779   -1.5315   -7.1109 C.ar      1 <0>        -0.0326
     33 C23         0.0906   -2.7488   -7.7909 C.ar      1 <0>        -0.0482
     34 C24         0.0959   -2.7727   -9.1720 C.ar      1 <0>        -0.1211
     35 C25         0.0881   -1.5929   -9.8886 C.ar      1 <0>        -0.0451
     36 C26         0.0753   -0.3671   -9.2192 C.ar      1 <0>        -0.0275
     37 C27         0.0642   -0.3386   -7.8249 C.ar      1 <0>        -0.0207
     38 C28         0.0681    0.8569   -9.9625 C.1       1 <0>         0.2474
     39 N9          0.0625    1.8278  -10.5522 N.1       1 <0>        -0.4001
     40 H1          1.0297    1.8292    0.0074 H         1 <0>         0.0707
     41 H2         -0.5111    1.8027   -0.8835 H         1 <0>         0.0878
     42 H3         -0.5121    1.8011    0.8965 H         1 <0>         0.0784
     43 H4          0.5774   -1.6936    1.1424 H         1 <0>         0.1078
     44 H5          0.5496   -0.1531    2.0337 H         1 <0>         0.0995
     45 H6         -1.9220   -0.0884    1.8447 H         1 <0>         0.1319
     46 H7         -1.8942   -1.6288    0.9533 H         1 <0>         0.1319
     47 H8         -1.3776   -3.6739    2.1048 H         1 <0>         0.1337
     48 H9          0.2323   -2.9549    2.3500 H         1 <0>         0.1418
     49 H10        -0.2784   -4.8198    3.9687 H         1 <0>         0.1261
     50 H11         0.0459   -3.2626    4.7755 H         1 <0>         0.0870
     51 H12        -3.7584   -2.8117    5.1638 H         1 <0>         0.1248
     52 H13        -2.2605   -1.9317    5.5677 H         1 <0>         0.0869
     53 H14        -3.2345   -0.9543    3.5406 H         1 <0>         0.1396
     54 H15        -3.3132   -2.5569    2.7696 H         1 <0>         0.1318
     55 H16        -0.8763   -6.2416    4.5029 H         1 <0>         0.1296
     56 H17        -1.8033   -8.3546    5.3591 H         1 <0>         0.1369
     57 H18        -5.1688   -6.2437    6.9323 H         1 <0>         0.1327
     58 H19        -4.2390   -4.1279    6.0864 H         1 <0>         0.1254
     59 H20        -5.1958   -7.8793    8.2372 H         1 <0>         0.0726
     60 H21        -6.0645   -8.1201    6.7024 H         1 <0>         0.0781
     61 H22        -6.7059   -9.8870    8.2708 H         1 <0>         0.0745
     62 H23        -5.7339  -10.5973    6.9597 H         1 <0>         0.0629
     63 H24        -4.3096  -12.0198    9.9945 H         1 <0>         0.0901
     64 H25        -6.0472  -11.7196    9.7520 H         1 <0>         0.0441
     65 H26        -5.0752  -12.4299    8.4409 H         1 <0>         0.0445
     66 H27         0.0265    1.0641   -2.4036 H         1 <0>         0.1622
     67 H28         0.1071   -4.6305   -3.0794 H         1 <0>         0.4294
     68 H29         0.1012   -4.5637   -1.4007 H         1 <0>         0.4260
     69 H30         0.0968   -3.6755   -7.2363 H         1 <0>         0.1401
     70 H31         0.1065   -3.7185   -9.6933 H         1 <0>         0.1451
     71 H32         0.0922   -1.6177  -10.9683 H         1 <0>         0.1420
     72 H33         0.0497    0.6063   -7.3020 H         1 <0>         0.1479
     73 H34        -0.8451   -1.2489    3.6670 H         1 <0>         0.4221
@<TRIPOS>BOND
     1    1    2 1
     2    1   40 1
     3    1   41 1
     4    1   42 1
     5    2    3 1
     6    2   22 1
     7    3    4 1
     8    3   43 1
     9    3   44 1
    10    4    5 1
    11    4   45 1
    12    4   46 1
    13    5   10 1
    14    5    6 1
    15    5   73 1
    16    6    7 1
    17    6   47 1
    18    6   48 1
    19    7    8 1
    20    7   49 1
    21    7   50 1
    22    8    9 1
    23    8   11 1
    24    9   10 1
    25    9   51 1
    26    9   52 1
    27   10   53 1
    28   10   54 1
    29   11   16 ar
    30   11   12 ar
    31   12   13 ar
    32   12   55 1
    33   13   14 ar
    34   13   56 1
    35   14   15 ar
    36   14   17 1
    37   15   16 ar
    38   15   57 1
    39   16   58 1
    40   17   18 1
    41   18   19 1
    42   18   59 1
    43   18   60 1
    44   19   20 1
    45   19   61 1
    46   19   62 1
    47   20   21 1
    48   21   63 1
    49   21   64 1
    50   21   65 1
    51   22   30 1
    52   22   23 2
    53   23   24 1
    54   23   66 1
    55   24   28 1
    56   24   25 2
    57   25   26 1
    58   26   27 2
    59   26   32 1
    60   27   28 1
    61   28   29 1
    62   29   30 2
    63   29   31 1
    64   31   67 1
    65   31   68 1
    66   32   37 ar
    67   32   33 ar
    68   33   34 ar
    69   33   69 1
    70   34   35 ar
    71   34   70 1
    72   35   36 ar
    73   35   71 1
    74   36   37 ar
    75   36   38 1
    76   37   72 1
    77   38   39 3
@<TRIPOS>MOLECULE
CHEMBL423739
   61    64     0     0     0
SMALL
USER_CHARGES

@<TRIPOS>ATOM
      1 C1         -0.0187    1.5258    0.0104 C.3       1 <0>        -0.1678
      2 C2          0.0021   -0.0041    0.0020 C.3       1 <0>         0.1135
      3 N1          0.7106   -0.4894    1.1889 N.am      1 <0>        -0.7273
      4 C3          0.8538   -1.8138    1.3937 C.2       1 <0>         0.5159
      5 O1          0.3960   -2.6038    0.5954 O.2       1 <0>        -0.5033
      6 C4          1.5826   -2.3130    2.6146 C.3       1 <0>         0.0319
      7 H1          1.1317   -1.9093    3.5212 H         1 <0>         0.1221
      8 C5          3.0862   -1.9436    2.5417 C.3       1 <0>         0.0509
      9 H2          3.4577   -2.0251    1.5203 H         1 <0>         0.0948
     10 C6          3.7288   -3.0193    3.4508 C.3       1 <0>         0.0832
     11 H3          4.6617   -3.3784    3.0162 H         1 <0>         0.0897
     12 C7          2.6834   -4.1506    3.4944 C.3       1 <0>         0.3146
     13 H4          2.3285   -4.2882    4.5158 H         1 <0>         0.1311
     14 O2          1.5881   -3.7564    2.6487 O.3       1 <0>        -0.3268
     15 N2          3.2764   -5.3962    3.0013 N.pl3     1 <0>        -0.4758
     16 C8          3.2093   -5.8721    1.7255 C.2       1 <0>         0.2642
     17 N3          3.8465   -7.0037    1.6385 N.2       1 <0>        -0.4574
     18 C9          4.3619   -7.3260    2.8485 C.ar      1 <0>        -0.1125
     19 C10         4.0067   -6.2955    3.7375 C.ar      1 <0>         0.3155
     20 N4          4.3989   -6.3686    5.0030 N.ar      1 <0>        -0.5457
     21 C11         5.1193   -7.3978    5.4275 C.ar      1 <0>         0.4194
     22 N5          5.4793   -8.3921    4.6207 N.ar      1 <0>        -0.5847
     23 C12         5.1225   -8.4012    3.3426 C.ar      1 <0>         0.5137
     24 N6          5.5033   -9.4390    2.5100 N.pl3     1 <0>        -0.8171
     25 C13         5.5362   -7.4413    6.8434 C.2       1 <0>        -0.1170
     26 C14         6.2574   -8.4607    7.2915 C.2       1 <0>        -0.0796
     27 C15         6.6829   -8.5051    8.7365 C.3       1 <0>        -0.0977
     28 C16         6.2197   -9.8212    9.3644 C.3       1 <0>        -0.1088
     29 C17         6.6517   -9.8662   10.8315 C.3       1 <0>        -0.0822
     30 C18         6.1954  -11.1626   11.4499 C.ar      1 <0>        -0.0817
     31 C19         4.9518  -11.2429   12.0482 C.ar      1 <0>        -0.1183
     32 C20         4.5333  -12.4320   12.6155 C.ar      1 <0>        -0.1185
     33 C21         5.3581  -13.5408   12.5840 C.ar      1 <0>        -0.1261
     34 C22         6.6013  -13.4607   11.9849 C.ar      1 <0>        -0.1186
     35 C23         7.0181  -12.2728   11.4138 C.ar      1 <0>        -0.1184
     36 O3          3.9577   -2.4955    4.7605 O.3       1 <0>        -0.5312
     37 O4          3.3149   -0.6324    3.0619 O.3       1 <0>        -0.5362
     38 H5          1.0039    1.9031    0.0027 H         1 <0>         0.0637
     39 H6         -0.5459    1.8868   -0.8726 H         1 <0>         0.0792
     40 H7         -0.5289    1.8773    0.9072 H         1 <0>         0.0645
     41 H8         -1.0205   -0.3814    0.0098 H         1 <0>         0.0730
     42 H9          0.5123   -0.3556   -0.8948 H         1 <0>         0.0727
     43 H10         1.0768    0.1425    1.8273 H         1 <0>         0.3979
     44 H11         2.7020   -5.3822    0.9075 H         1 <0>         0.2246
     45 H12         5.2456   -9.4300    1.5749 H         1 <0>         0.4197
     46 H13         6.0277  -10.1754    2.8615 H         1 <0>         0.4106
     47 H14         5.2541   -6.6433    7.5141 H         1 <0>         0.1365
     48 H15         6.5396   -9.2588    6.6208 H         1 <0>         0.1288
     49 H16         7.7690   -8.4357    8.7978 H         1 <0>         0.0817
     50 H17         6.2346   -7.6689    9.2732 H         1 <0>         0.0732
     51 H18         5.1336   -9.8905    9.3032 H         1 <0>         0.0666
     52 H19         6.6680  -10.6574    8.8278 H         1 <0>         0.0675
     53 H20         7.7377   -9.7969   10.8927 H         1 <0>         0.0736
     54 H21         6.2034   -9.0301   11.3681 H         1 <0>         0.0735
     55 H22         4.3074  -10.3766   12.0729 H         1 <0>         0.1209
     56 H23         3.5620  -12.4946   13.0836 H         1 <0>         0.1210
     57 H24         5.0314  -14.4697   13.0279 H         1 <0>         0.1203
     58 H25         7.2459  -14.3270   11.9606 H         1 <0>         0.1210
     59 H26         7.9878  -12.2113   10.9424 H         1 <0>         0.1211
     60 H27         4.5648   -1.7431    4.7827 H         1 <0>         0.3967
     61 H28         2.8575    0.0683    2.5773 H         1 <0>         0.3841
@<TRIPOS>BOND
     1    1    2 1
     2    1   38 1
     3    1   39 1
     4    1   40 1
     5    2    3 1
     6    2   41 1
     7    2   42 1
     8    3    4 am
     9    3   43 1
    10    4    5 2
    11    4    6 1
    12    6    7 1
    13    6   14 1
    14    6    8 1
    15    8    9 1
    16    8   10 1
    17    8   37 1
    18   10   11 1
    19   10   12 1
    20   10   36 1
    21   12   13 1
    22   12   14 1
    23   12   15 1
    24   15   19 1
    25   15   16 1
    26   16   17 2
    27   16   44 1
    28   17   18 1
    29   18   23 ar
    30   18   19 ar
    31   19   20 ar
    32   20   21 ar
    33   21   22 ar
    34   21   25 1
    35   22   23 ar
    36   23   24 1
    37   24   45 1
    38   24   46 1
    39   25   26 2
    40   25   47 1
    41   26   27 1
    42   26   48 1
    43   27   28 1
    44   27   49 1
    45   27   50 1
    46   28   29 1
    47   28   51 1
    48   28   52 1
    49   29   30 1
    50   29   53 1
    51   29   54 1
    52   30   35 ar
    53   30   31 ar
    54   31   32 ar
    55   31   55 1
    56   32   33 ar
    57   32   56 1
    58   33   34 ar
    59   33   57 1
    60   34   35 ar
    61   34   58 1
    62   35   59 1
    63   36   60 1
    64   37   61 1
@<TRIPOS>MOLECULE
CHEMBL246262
   53    58     0     0     0
SMALL
USER_CHARGES

@<TRIPOS>ATOM
      1 C1         -0.0162    1.3433    0.0094 C.2       1 <0>        -0.2201
      2 C2          1.3252    1.7743   -0.0011 C.2       1 <0>        -0.1374
      3 C3          2.0962    0.6548   -0.0144 C.2       1 <0>         0.0432
      4 O1          1.2797   -0.4166   -0.0124 O.3       1 <0>        -0.1516
      5 C4          0.0021   -0.0041    0.0020 C.2       1 <0>        -0.0042
      6 C5          3.5737    0.6193   -0.0292 C.2       1 <0>         0.3455
      7 N1          4.3216   -0.4904   -0.0476 N.2       1 <0>        -0.4997
      8 C6          5.5988   -0.1630   -0.0576 C.2       1 <0>         0.3975
      9 C7          6.8477   -0.9205   -0.0777 C.2       1 <0>        -0.0263
     10 C8          8.0482   -0.2033   -0.0831 C.2       1 <0>         0.2911
     11 N2          8.0241    1.1346   -0.0704 N.2       1 <0>        -0.5426
     12 C9          6.9027    1.8137   -0.0530 C.2       1 <0>         0.6709
     13 N3          5.6823    1.2057   -0.0451 N.pl3     1 <0>        -0.3630
     14 N4          4.3634    1.6772   -0.0320 N.2       1 <0>        -0.2949
     15 N5          6.9595    3.1893   -0.0404 N.pl3     1 <0>        -0.8062
     16 N6          9.0487   -1.1423   -0.1025 N.pl3     1 <0>        -0.4510
     17 C10         8.4571   -2.3702   -0.1084 C.2       1 <0>         0.2292
     18 N7          7.1617   -2.2351   -0.0938 N.2       1 <0>        -0.4314
     19 C11        10.4889   -0.8741   -0.1146 C.3       1 <0>         0.1125
     20 C12        10.9820   -0.6711    1.3194 C.3       1 <0>         0.0418
     21 N8         12.4261   -0.4022    1.3072 N.3       1 <0>        -0.5327
     22 C13        13.1758   -1.5738    0.8348 C.3       1 <0>         0.0333
     23 C14        14.6514   -1.1972    0.6643 C.3       1 <0>         0.1311
     24 N9         15.1345   -0.6174    1.9267 N.pl3     1 <0>        -0.5817
     25 C15        14.3563    0.4726    2.5347 C.3       1 <0>         0.1315
     26 C16        12.8923    0.0302    2.6315 C.3       1 <0>         0.0433
     27 C17        16.2920   -1.0853    2.5271 C.ar      1 <0>         0.5592
     28 N10        16.9700   -2.0644    1.9474 N.ar      1 <0>        -0.5473
     29 C18        18.0794   -2.5350    2.4934 C.ar      1 <0>         0.1768
     30 C19        18.5296   -1.9896    3.6875 C.ar      1 <0>        -0.0748
     31 C20        17.7942   -0.9650    4.2667 C.ar      1 <0>         0.1768
     32 N11        16.6965   -0.5388    3.6638 N.ar      1 <0>        -0.5474
     33 F1         19.6582   -2.4462    4.2732 F         1 <0>        -0.1256
     34 H1         -0.8931    1.9736    0.0252 H         1 <0>         0.1595
     35 H2          1.6736    2.7966    0.0011 H         1 <0>         0.1602
     36 H3         -0.8667   -0.6456    0.0072 H         1 <0>         0.2141
     37 H4          7.8188    3.6393   -0.0444 H         1 <0>         0.4294
     38 H5          6.1402    3.7084   -0.0274 H         1 <0>         0.4254
     39 H6          8.9832   -3.3133   -0.1235 H         1 <0>         0.2271
     40 H7         11.0121   -1.7190   -0.5626 H         1 <0>         0.1028
     41 H8         10.6860    0.0257   -0.6974 H         1 <0>         0.1090
     42 H9         10.4589    0.1737    1.7674 H         1 <0>         0.0872
     43 H10        10.7849   -1.5709    1.9022 H         1 <0>         0.0452
     44 H11        13.0880   -2.3799    1.5633 H         1 <0>         0.0436
     45 H12        12.7714   -1.9026   -0.1225 H         1 <0>         0.0923
     46 H13        15.2315   -2.0885    0.4251 H         1 <0>         0.1043
     47 H14        14.7522   -0.4652   -0.1370 H         1 <0>         0.0778
     48 H15        14.7412    0.6853    3.5320 H         1 <0>         0.1042
     49 H16        14.4287    1.3650    1.9131 H         1 <0>         0.0781
     50 H17        12.2823    0.8647    2.9772 H         1 <0>         0.0926
     51 H18        12.8084   -0.7982    3.3350 H         1 <0>         0.0419
     52 H19        18.6275   -3.3338    2.0161 H         1 <0>         0.1800
     53 H20        18.1163   -0.5186    5.1959 H         1 <0>         0.1798
@<TRIPOS>BOND
     1    1    5 2
     2    1    2 1
     3    1   34 1
     4    2    3 2
     5    2   35 1
     6    3    4 1
     7    3    6 1
     8    4    5 1
     9    5   36 1
    10    6   14 2
    11    6    7 1
    12    7    8 2
    13    8   13 1
    14    8    9 1
    15    9   18 1
    16    9   10 2
    17   10   11 1
    18   10   16 1
    19   11   12 2
    20   12   13 1
    21   12   15 1
    22   13   14 1
    23   15   37 1
    24   15   38 1
    25   16   17 1
    26   16   19 1
    27   17   18 2
    28   17   39 1
    29   19   20 1
    30   19   40 1
    31   19   41 1
    32   20   21 1
    33   20   42 1
    34   20   43 1
    35   21   26 1
    36   21   22 1
    37   22   23 1
    38   22   44 1
    39   22   45 1
    40   23   24 1
    41   23   46 1
    42   23   47 1
    43   24   25 1
    44   24   27 1
    45   25   26 1
    46   25   48 1
    47   25   49 1
    48   26   50 1
    49   26   51 1
    50   27   32 ar
    51   27   28 ar
    52   28   29 ar
    53   29   30 ar
    54   29   52 1
    55   30   31 ar
    56   30   33 1
    57   31   32 ar
    58   31   53 1
@<TRIPOS>MOLECULE
CHEMBL87459
   56    59     0     0     0
SMALL
USER_CHARGES

@<TRIPOS>ATOM
      1 C1         -0.0164    1.3602    0.0095 C.2       1 <0>         0.2652
      2 N1          1.2002    1.8207    0.0004 N.2       1 <0>        -0.4595
      3 C2          2.0747    0.7847   -0.0135 C.ar      1 <0>        -0.1502
      4 C3          3.4764    0.6773   -0.0279 C.ar      1 <0>         0.5421
      5 N2          4.0206   -0.5342   -0.0400 N.ar      1 <0>        -0.6258
      6 C4          3.2653   -1.6255   -0.0386 C.ar      1 <0>         0.6281
      7 N3          1.9436   -1.5695   -0.0253 N.ar      1 <0>        -0.6174
      8 C5          1.3163   -0.3973   -0.0126 C.ar      1 <0>         0.3551
      9 N4          0.0021   -0.0041    0.0020 N.pl3     1 <0>        -0.4672
     10 C6         -1.1670   -0.8870    0.0084 C.3       1 <0>         0.3163
     11 C7         -1.5283   -1.2880   -1.4379 C.3       1 <0>         0.0773
     12 H1         -1.1653   -2.2904   -1.6647 H         1 <0>         0.0965
     13 C8         -3.0808   -1.2554   -1.4109 C.3       1 <0>         0.0469
     14 H2         -3.4867   -2.1902   -1.0244 H         1 <0>         0.0923
     15 C9         -3.3333   -0.0871   -0.4249 C.3       1 <0>         0.0518
     16 H3         -3.2625    0.8685   -0.9445 H         1 <0>         0.0982
     17 O1         -2.2941   -0.1968    0.5607 O.3       1 <0>        -0.3466
     18 C10        -4.7078   -0.2333    0.2310 C.3       1 <0>         0.0780
     19 O2         -4.9708    0.9105    1.0462 O.3       1 <0>        -0.5625
     20 O3         -3.6124   -0.9626   -2.7046 O.3       1 <0>        -0.5429
     21 O4         -1.0118   -0.3388   -2.3730 O.3       1 <0>        -0.5327
     22 N5          3.8820   -2.8657   -0.0520 N.pl3     1 <0>        -0.6981
     23 C11         5.3441   -2.9566   -0.0674 C.3       1 <0>         0.1397
     24 C12         5.7635   -4.4279   -0.0802 C.3       1 <0>        -0.1293
     25 C13         7.2905   -4.5228   -0.0962 C.3       1 <0>        -0.0812
     26 C14         7.8241   -3.9385   -1.4057 C.3       1 <0>        -0.1179
     27 C15         9.3511   -4.0334   -1.4217 C.3       1 <0>        -0.1206
     28 C16         9.7721   -5.4999   -1.3087 C.3       1 <0>        -0.1211
     29 C17         9.2385   -6.0843    0.0007 C.3       1 <0>        -0.1204
     30 C18         7.7116   -5.9894    0.0168 C.3       1 <0>        -0.1139
     31 N6          4.2719    1.8093   -0.0299 N.pl3     1 <0>        -0.8177
     32 H4         -0.9091    1.9679    0.0254 H         1 <0>         0.2118
     33 H5         -0.9538   -1.7783    0.5984 H         1 <0>         0.1333
     34 H6         -5.4725   -0.3124   -0.5417 H         1 <0>         0.0631
     35 H7         -4.7217   -1.1310    0.8492 H         1 <0>         0.0587
     36 H8         -5.8274    0.8857    1.4941 H         1 <0>         0.3853
     37 H9         -4.5784   -0.9320   -2.7352 H         1 <0>         0.3898
     38 H10        -1.2125   -0.5466   -3.2958 H         1 <0>         0.3920
     39 H11         3.3458   -3.6740   -0.0513 H         1 <0>         0.4121
     40 H12         5.7296   -2.4611   -0.9585 H         1 <0>         0.0688
     41 H13         5.7477   -2.4714    0.8213 H         1 <0>         0.0655
     42 H14         5.3781   -4.9233    0.8109 H         1 <0>         0.0696
     43 H15         5.3600   -4.9131   -0.9689 H         1 <0>         0.0693
     44 H16         7.6983   -3.9619    0.7448 H         1 <0>         0.0737
     45 H17         7.4163   -4.4994   -2.2466 H         1 <0>         0.0617
     46 H18         7.5241   -2.8936   -1.4862 H         1 <0>         0.0659
     47 H19         9.7312   -3.6170   -2.3546 H         1 <0>         0.0608
     48 H20         9.7588   -3.4725   -0.5808 H         1 <0>         0.0616
     49 H21         9.3644   -6.0608   -2.1497 H         1 <0>         0.0605
     50 H22        10.8599   -5.5675   -1.3202 H         1 <0>         0.0599
     51 H23         9.5385   -7.1291    0.0812 H         1 <0>         0.0608
     52 H24         9.6463   -5.5234    0.8417 H         1 <0>         0.0615
     53 H25         7.3314   -6.4057    0.9497 H         1 <0>         0.0617
     54 H26         7.3038   -6.5503   -0.8242 H         1 <0>         0.0620
     55 H27         3.8635    2.6891   -0.0213 H         1 <0>         0.4197
     56 H28         5.2381    1.7231   -0.0398 H         1 <0>         0.4081
@<TRIPOS>BOND
     1    1    9 1
     2    1    2 2
     3    1   32 1
     4    2    3 1
     5    3    8 ar
     6    3    4 ar
     7    4    5 ar
     8    4   31 1
     9    5    6 ar
    10    6    7 ar
    11    6   22 1
    12    7    8 ar
    13    8    9 1
    14    9   10 1
    15   10   17 1
    16   10   11 1
    17   10   33 1
    18   11   12 1
    19   11   13 1
    20   11   21 1
    21   13   14 1
    22   13   15 1
    23   13   20 1
    24   15   16 1
    25   15   17 1
    26   15   18 1
    27   18   19 1
    28   18   34 1
    29   18   35 1
    30   19   36 1
    31   20   37 1
    32   21   38 1
    33   22   23 1
    34   22   39 1
    35   23   24 1
    36   23   40 1
    37   23   41 1
    38   24   25 1
    39   24   42 1
    40   24   43 1
    41   25   30 1
    42   25   26 1
    43   25   44 1
    44   26   27 1
    45   26   45 1
    46   26   46 1
    47   27   28 1
    48   27   47 1
    49   27   48 1
    50   28   29 1
    51   28   49 1
    52   28   50 1
    53   29   30 1
    54   29   51 1
    55   29   52 1
    56   30   53 1
    57   30   54 1
    58   31   55 1
    59   31   56 1
@<TRIPOS>MOLECULE
CHEMBL260719
   26    29     0     0     0
SMALL
USER_CHARGES

@<TRIPOS>ATOM
      1 C1         -0.0170    1.4020    0.0098 C.2       1 <0>        -0.1607
      2 C2          1.1371    2.0950    0.0025 C.2       1 <0>        -0.1158
      3 S1          2.3761    0.8100   -0.0163 S.3       1 <0>         0.1492
      4 C3          1.2898   -0.5904   -0.0135 C.ar      1 <0>        -0.2280
      5 C4          0.0021   -0.0041    0.0020 C.ar      1 <0>         0.1797
      6 N1         -1.0358   -0.8732    0.0069 N.ar      1 <0>        -0.4837
      7 C5         -0.8436   -2.1679   -0.0023 C.ar      1 <0>         0.3631
      8 N2          0.3496   -2.7304   -0.0168 N.ar      1 <0>        -0.4834
      9 C6          1.4486   -1.9678   -0.0228 C.ar      1 <0>         0.3200
     10 C7          2.7940   -2.5762   -0.0393 C.2       1 <0>         0.1111
     11 N3          3.9833   -1.9890   -0.0416 N.2       1 <0>        -0.4688
     12 C8          5.0893   -2.6906   -0.0574 C.2       1 <0>         0.0234
     13 C9          5.0292   -4.0512   -0.0717 C.2       1 <0>        -0.1897
     14 S2          3.2585   -4.3028   -0.0535 S.3       1 <0>         0.0997
     15 C10        -2.0534   -3.0665    0.0045 C.3       1 <0>        -0.1060
     16 C11        -3.4225   -2.4095   -0.1819 C.3       1 <0>        -0.1504
     17 C12        -3.0135   -2.9496    1.1900 C.3       1 <0>        -0.1530
     18 H1         -0.9604    1.9275    0.0261 H         1 <0>         0.1538
     19 H2          1.2787    3.1657    0.0066 H         1 <0>         0.2054
     20 H3          6.0469   -2.1912   -0.0593 H         1 <0>         0.1772
     21 H4          5.8289   -4.7769   -0.0854 H         1 <0>         0.2066
     22 H5         -1.9065   -4.0560   -0.4285 H         1 <0>         0.1336
     23 H6         -3.4482   -1.3272   -0.3094 H         1 <0>         0.1104
     24 H7         -4.1766   -2.9666   -0.7377 H         1 <0>         0.1035
     25 H8         -3.4986   -3.8621    1.5366 H         1 <0>         0.1060
     26 H9         -2.7702   -2.2228    1.9649 H         1 <0>         0.0964
@<TRIPOS>BOND
     1    1    5 1
     2    1    2 2
     3    1   18 1
     4    2    3 1
     5    2   19 1
     6    3    4 1
     7    4    9 ar
     8    4    5 ar
     9    5    6 ar
    10    6    7 ar
    11    7    8 ar
    12    7   15 1
    13    8    9 ar
    14    9   10 1
    15   10   14 1
    16   10   11 2
    17   11   12 1
    18   12   13 2
    19   12   20 1
    20   13   14 1
    21   13   21 1
    22   15   17 1
    23   15   16 1
    24   15   22 1
    25   16   17 1
    26   16   23 1
    27   16   24 1
    28   17   25 1
    29   17   26 1
@<TRIPOS>MOLECULE
CHEMBL513681
   47    50     0     0     0
SMALL
USER_CHARGES

@<TRIPOS>ATOM
      1 C1          0.0043    1.3962   -0.0055 C.3       1 <0>         0.0824
      2 N1          0.0134   -0.0688   -0.0035 N.am      1 <0>        -0.5223
      3 C2         -1.1850   -0.7707    0.0026 C.2       1 <0>         0.1483
      4 C3         -2.5289   -0.3872    0.0071 C.2       1 <0>        -0.1919
      5 C4         -3.2884   -1.5229    0.0117 C.2       1 <0>         0.1464
      6 N2         -2.4584   -2.6090    0.0101 N.pl3     1 <0>        -0.5011
      7 H1         -2.7399   -3.5372    0.0123 H         1 <0>         0.4304
      8 C5         -1.1537   -2.1630    0.0045 C.2       1 <0>        -0.1012
      9 C6          0.1002   -2.8152    0.0013 C.2       1 <0>         0.5863
     10 O1          0.1604   -4.0319    0.0025 O.2       1 <0>        -0.5163
     11 N3          1.2289   -2.0780   -0.0034 N.am      1 <0>        -0.5511
     12 C7          1.1837   -0.7349   -0.0130 C.2       1 <0>         0.7006
     13 O2          2.2245   -0.1061   -0.0232 O.2       1 <0>        -0.5405
     14 C8          2.5289   -2.7537   -0.0067 C.3       1 <0>         0.0827
     15 C9         -4.7660   -1.5695    0.0179 C.ar      1 <0>        -0.0214
     16 C10        -5.5047   -0.3852    0.0136 C.ar      1 <0>        -0.0913
     17 C11        -6.8833   -0.4357    0.0189 C.ar      1 <0>        -0.0852
     18 C12        -7.5338   -1.6568    0.0285 C.ar      1 <0>        -0.0898
     19 C13        -6.8076   -2.8345    0.0332 C.ar      1 <0>        -0.0840
     20 C14        -5.4285   -2.7980    0.0222 C.ar      1 <0>        -0.1126
     21 C15        -9.0401   -1.7043    0.0342 C.3       1 <0>         0.1253
     22 O3         -9.5211   -1.7273   -1.3112 O.3       1 <0>        -0.3546
     23 C16       -10.8561   -1.7704   -1.4825 C.2       1 <0>         0.6502
     24 O4        -11.5925   -1.7880   -0.5159 O.2       1 <0>        -0.5511
     25 N4        -11.3755   -1.7939   -2.7259 N.am      1 <0>        -0.6379
     26 C17       -12.7628   -1.9541   -2.9065 C.2       1 <0>         0.1120
     27 C18       -13.3832   -1.4854   -4.0537 C.2       1 <0>        -0.1737
     28 C19       -14.7203   -1.6569   -4.1939 C.2       1 <0>        -0.1545
     29 S1        -15.1482   -2.5012   -2.6804 S.3       1 <0>         0.0609
     30 C20       -13.5160   -2.5760   -1.9613 C.2       1 <0>        -0.1773
     31 H2          1.0296    1.7659   -0.0153 H         1 <0>         0.1029
     32 H3         -0.5198    1.7550   -0.8914 H         1 <0>         0.0775
     33 H4         -0.5038    1.7576    0.8885 H         1 <0>         0.0778
     34 H5         -2.9009    0.6267    0.0071 H         1 <0>         0.1608
     35 H6          2.8479   -2.9227   -1.0352 H         1 <0>         0.0758
     36 H7          3.2634   -2.1308    0.5038 H         1 <0>         0.0959
     37 H8          2.4425   -3.7102    0.5088 H         1 <0>         0.0943
     38 H9         -4.9981    0.5686    0.0065 H         1 <0>         0.1377
     39 H10        -7.4560    0.4799    0.0160 H         1 <0>         0.1345
     40 H11        -7.3214   -3.7844    0.0414 H         1 <0>         0.1324
     41 H12        -4.8628   -3.7180    0.0213 H         1 <0>         0.1247
     42 H13        -9.3733   -2.6023    0.5546 H         1 <0>         0.0829
     43 H14        -9.4294   -0.8232    0.5443 H         1 <0>         0.0838
     44 H15       -10.7937   -1.7006   -3.4964 H         1 <0>         0.4174
     45 H16       -12.8101   -0.9908   -4.8240 H         1 <0>         0.1414
     46 H17       -15.3615   -1.3592   -5.0104 H         1 <0>         0.1932
     47 H18       -13.2072   -3.0035   -1.0188 H         1 <0>         0.1988
@<TRIPOS>BOND
     1    1    2 1
     2    1   31 1
     3    1   32 1
     4    1   33 1
     5    2   12 am
     6    2    3 1
     7    3    8 2
     8    3    4 1
     9    4    5 2
    10    4   34 1
    11    5    6 1
    12    5   15 1
    13    6    7 1
    14    6    8 1
    15    8    9 1
    16    9   10 2
    17    9   11 am
    18   11   12 am
    19   11   14 1
    20   12   13 2
    21   14   35 1
    22   14   36 1
    23   14   37 1
    24   15   20 ar
    25   15   16 ar
    26   16   17 ar
    27   16   38 1
    28   17   18 ar
    29   17   39 1
    30   18   19 ar
    31   18   21 1
    32   19   20 ar
    33   19   40 1
    34   20   41 1
    35   21   22 1
    36   21   42 1
    37   21   43 1
    38   22   23 1
    39   23   24 2
    40   23   25 am
    41   25   26 1
    42   25   44 1
    43   26   30 2
    44   26   27 1
    45   27   28 2
    46   27   45 1
    47   28   29 1
    48   28   46 1
    49   29   30 1
    50   30   47 1
@<TRIPOS>MOLECULE
CHEMBL607796
   51    54     0     0     0
SMALL
USER_CHARGES

@<TRIPOS>ATOM
      1 C1         -0.0164    1.3601    0.0095 C.2       1 <0>         0.2696
      2 N1          1.2003    1.8207    0.0004 N.2       1 <0>        -0.4591
      3 C2          2.0748    0.7852   -0.0135 C.ar      1 <0>        -0.1387
      4 C3          3.4769    0.6781   -0.0279 C.ar      1 <0>         0.5368
      5 N2          4.0212   -0.5330   -0.0400 N.ar      1 <0>        -0.5938
      6 C4          3.2659   -1.6248   -0.0386 C.ar      1 <0>         0.6471
      7 N3          1.9437   -1.5689   -0.0257 N.ar      1 <0>        -0.6109
      8 C5          1.3165   -0.3972   -0.0126 C.ar      1 <0>         0.3504
      9 N4          0.0021   -0.0041    0.0020 N.pl3     1 <0>        -0.4652
     10 C6         -1.1669   -0.8870    0.0089 C.3       1 <0>         0.3154
     11 C7         -1.5288   -1.2881   -1.4374 C.3       1 <0>         0.0769
     12 H1         -1.1658   -2.2905   -1.6643 H         1 <0>         0.0966
     13 C8         -3.0813   -1.2555   -1.4098 C.3       1 <0>         0.0471
     14 H2         -3.4870   -2.1904   -1.0232 H         1 <0>         0.0925
     15 C9         -3.3334   -0.0872   -0.4237 C.3       1 <0>         0.0516
     16 H3         -3.2629    0.8684   -0.9433 H         1 <0>         0.0987
     17 O1         -2.2939   -0.1969    0.5615 O.3       1 <0>        -0.3460
     18 C10        -4.7077   -0.2336    0.2327 C.3       1 <0>         0.0780
     19 O2         -4.9704    0.9103    1.0480 O.3       1 <0>        -0.5625
     20 O3         -3.6133   -0.9627   -2.7033 O.3       1 <0>        -0.5427
     21 O4         -1.0127   -0.3389   -2.3726 O.3       1 <0>        -0.5329
     22 N5          3.8829   -2.8651   -0.0516 N.pl3     1 <0>        -0.5441
     23 N6          5.2812   -2.9518   -0.0658 N.2       1 <0>        -0.2106
     24 C11         5.8602   -4.1157   -0.0780 C.2       1 <0>         0.0905
     25 C12         7.3242   -4.2064   -0.0929 C.2       1 <0>        -0.0981
     26 C13         8.0156   -3.0854   -0.0880 C.2       1 <0>        -0.0963
     27 C14         9.5154   -3.0301   -0.1109 C.3       1 <0>        -0.0961
     28 C15        10.0986   -4.3879    0.2856 C.3       1 <0>        -0.1236
     29 C16         9.4113   -5.4756   -0.5489 C.3       1 <0>        -0.1194
     30 C17         7.9482   -5.5715   -0.1066 C.3       1 <0>        -0.0753
     31 N7          4.2722    1.8103   -0.0299 N.pl3     1 <0>        -0.8149
     32 H4         -0.9091    1.9677    0.0254 H         1 <0>         0.2139
     33 H5         -0.9535   -1.7784    0.5988 H         1 <0>         0.1338
     34 H6         -5.4727   -0.3127   -0.5397 H         1 <0>         0.0634
     35 H7         -4.7213   -1.1312    0.8509 H         1 <0>         0.0587
     36 H8         -5.8269    0.8855    1.4962 H         1 <0>         0.3855
     37 H9         -4.5794   -0.9322   -2.7335 H         1 <0>         0.3901
     38 H10        -1.2137   -0.5467   -3.2954 H         1 <0>         0.3927
     39 H11         3.3469   -3.6735   -0.0508 H         1 <0>         0.4009
     40 H12         5.2634   -5.0158   -0.0771 H         1 <0>         0.1134
     41 H13         7.4722   -2.1523   -0.0668 H         1 <0>         0.1243
     42 H14         9.8522   -2.7714   -1.1148 H         1 <0>         0.0799
     43 H15         9.8597   -2.2702    0.5906 H         1 <0>         0.0771
     44 H16        11.1706   -4.3977    0.0884 H         1 <0>         0.0664
     45 H17         9.9166   -4.5694    1.3449 H         1 <0>         0.0657
     46 H18         9.4613   -5.2127   -1.6056 H         1 <0>         0.0664
     47 H19         9.9065   -6.4323   -0.3828 H         1 <0>         0.0680
     48 H20         7.8970   -6.0023    0.8934 H         1 <0>         0.0757
     49 H21         7.4036   -6.2107   -0.8015 H         1 <0>         0.0729
     50 H22         3.8636    2.6900   -0.0213 H         1 <0>         0.4201
     51 H23         5.2383    1.7244   -0.0398 H         1 <0>         0.4099
@<TRIPOS>BOND
     1    1    9 1
     2    1    2 2
     3    1   32 1
     4    2    3 1
     5    3    8 ar
     6    3    4 ar
     7    4    5 ar
     8    4   31 1
     9    5    6 ar
    10    6    7 ar
    11    6   22 1
    12    7    8 ar
    13    8    9 1
    14    9   10 1
    15   10   17 1
    16   10   11 1
    17   10   33 1
    18   11   12 1
    19   11   13 1
    20   11   21 1
    21   13   14 1
    22   13   15 1
    23   13   20 1
    24   15   16 1
    25   15   17 1
    26   15   18 1
    27   18   19 1
    28   18   34 1
    29   18   35 1
    30   19   36 1
    31   20   37 1
    32   21   38 1
    33   22   23 1
    34   22   39 1
    35   23   24 2
    36   24   25 1
    37   24   40 1
    38   25   30 1
    39   25   26 2
    40   26   27 1
    41   26   41 1
    42   27   28 1
    43   27   42 1
    44   27   43 1
    45   28   29 1
    46   28   44 1
    47   28   45 1
    48   29   30 1
    49   29   46 1
    50   29   47 1
    51   30   48 1
    52   30   49 1
    53   31   50 1
    54   31   51 1
@<TRIPOS>MOLECULE
CHEMBL608966
   59    62     0     0     0
SMALL
USER_CHARGES

@<TRIPOS>ATOM
      1 C1         -0.0164    1.3601    0.0095 C.2       1 <0>         0.2692
      2 N1          1.2003    1.8207    0.0004 N.2       1 <0>        -0.4590
      3 C2          2.0748    0.7851   -0.0135 C.ar      1 <0>        -0.1393
      4 C3          3.4767    0.6778   -0.0279 C.ar      1 <0>         0.5366
      5 N2          4.0210   -0.5334   -0.0400 N.ar      1 <0>        -0.5935
      6 C4          3.2657   -1.6250   -0.0386 C.ar      1 <0>         0.6475
      7 N3          1.9437   -1.5691   -0.0253 N.ar      1 <0>        -0.6118
      8 C5          1.3165   -0.3973   -0.0126 C.ar      1 <0>         0.3505
      9 N4          0.0021   -0.0041    0.0020 N.pl3     1 <0>        -0.4654
     10 C6         -1.1669   -0.8870    0.0089 C.3       1 <0>         0.3155
     11 C7         -1.5288   -1.2881   -1.4374 C.3       1 <0>         0.0769
     12 H1         -1.1658   -2.2905   -1.6643 H         1 <0>         0.0965
     13 C8         -3.0813   -1.2555   -1.4098 C.3       1 <0>         0.0471
     14 H2         -3.4870   -2.1903   -1.0232 H         1 <0>         0.0925
     15 C9         -3.3334   -0.0872   -0.4237 C.3       1 <0>         0.0516
     16 H3         -3.2629    0.8684   -0.9433 H         1 <0>         0.0987
     17 O1         -2.2939   -0.1969    0.5615 O.3       1 <0>        -0.3460
     18 C10        -4.7077   -0.2335    0.2327 C.3       1 <0>         0.0781
     19 O2         -4.9704    0.9103    1.0480 O.3       1 <0>        -0.5625
     20 O3         -3.6133   -0.9627   -2.7033 O.3       1 <0>        -0.5427
     21 O4         -1.0127   -0.3389   -2.3726 O.3       1 <0>        -0.5328
     22 N5          3.8829   -2.8658   -0.0520 N.pl3     1 <0>        -0.5502
     23 N6          5.2811   -2.9525   -0.0667 N.2       1 <0>        -0.2087
     24 C11         5.8512   -4.0986   -0.0791 C.2       1 <0>         0.0579
     25 C12         7.3552   -4.1919   -0.0949 C.3       1 <0>        -0.0656
     26 C13         7.8249   -5.0561    1.0770 C.3       1 <0>        -0.1098
     27 C14         9.3519   -5.1508    1.0610 C.3       1 <0>        -0.0863
     28 C15         9.8035   -5.8950   -0.1973 C.3       1 <0>        -0.1171
     29 C16        11.3305   -5.9898   -0.2133 C.3       1 <0>        -0.1213
     30 C17        11.8075   -6.7484    1.0268 C.3       1 <0>        -0.1209
     31 C18        11.3559   -6.0042    2.2850 C.3       1 <0>        -0.1208
     32 C19         9.8289   -5.9095    2.3011 C.3       1 <0>        -0.1147
     33 N7          4.2721    1.8100   -0.0299 N.pl3     1 <0>        -0.8150
     34 H4         -0.9091    1.9678    0.0254 H         1 <0>         0.2137
     35 H5         -0.9535   -1.7784    0.5988 H         1 <0>         0.1337
     36 H6         -5.4727   -0.3126   -0.5397 H         1 <0>         0.0634
     37 H7         -4.7214   -1.1311    0.8509 H         1 <0>         0.0587
     38 H8         -5.8269    0.8856    1.4962 H         1 <0>         0.3855
     39 H9         -4.5794   -0.9322   -2.7335 H         1 <0>         0.3901
     40 H10        -1.2137   -0.5467   -3.2954 H         1 <0>         0.3926
     41 H11         3.3468   -3.6742   -0.0513 H         1 <0>         0.4000
     42 H12         5.2543   -4.9987   -0.0783 H         1 <0>         0.1067
     43 H13         7.6815   -4.6425   -1.0323 H         1 <0>         0.0894
     44 H14         7.7822   -3.1932   -0.0039 H         1 <0>         0.0843
     45 H15         7.4987   -4.6055    2.0144 H         1 <0>         0.0660
     46 H16         7.3980   -6.0549    0.9860 H         1 <0>         0.0662
     47 H17         9.7782   -4.1476    1.0624 H         1 <0>         0.0728
     48 H18         9.3773   -6.8982   -0.1987 H         1 <0>         0.0619
     49 H19         9.4637   -5.3546   -1.0807 H         1 <0>         0.0648
     50 H20        11.6523   -6.5200   -1.1097 H         1 <0>         0.0602
     51 H21        11.7568   -4.9866   -0.2118 H         1 <0>         0.0613
     52 H22        11.3812   -7.7516    1.0253 H         1 <0>         0.0603
     53 H23        12.8954   -6.8159    1.0154 H         1 <0>         0.0593
     54 H24        11.6957   -6.5447    3.1685 H         1 <0>         0.0601
     55 H25        11.7822   -5.0010    2.2865 H         1 <0>         0.0613
     56 H26         9.5072   -5.3793    3.1974 H         1 <0>         0.0612
     57 H27         9.4026   -6.9126    2.2996 H         1 <0>         0.0615
     58 H28         3.8636    2.6897   -0.0213 H         1 <0>         0.4199
     59 H29         5.2382    1.7240   -0.0398 H         1 <0>         0.4100
@<TRIPOS>BOND
     1    1    9 1
     2    1    2 2
     3    1   34 1
     4    2    3 1
     5    3    8 ar
     6    3    4 ar
     7    4    5 ar
     8    4   33 1
     9    5    6 ar
    10    6    7 ar
    11    6   22 1
    12    7    8 ar
    13    8    9 1
    14    9   10 1
    15   10   17 1
    16   10   11 1
    17   10   35 1
    18   11   12 1
    19   11   13 1
    20   11   21 1
    21   13   14 1
    22   13   15 1
    23   13   20 1
    24   15   16 1
    25   15   17 1
    26   15   18 1
    27   18   19 1
    28   18   36 1
    29   18   37 1
    30   19   38 1
    31   20   39 1
    32   21   40 1
    33   22   23 1
    34   22   41 1
    35   23   24 2
    36   24   25 1
    37   24   42 1
    38   25   26 1
    39   25   43 1
    40   25   44 1
    41   26   27 1
    42   26   45 1
    43   26   46 1
    44   27   32 1
    45   27   28 1
    46   27   47 1
    47   28   29 1
    48   28   48 1
    49   28   49 1
    50   29   30 1
    51   29   50 1
    52   29   51 1
    53   30   31 1
    54   30   52 1
    55   30   53 1
    56   31   32 1
    57   31   54 1
    58   31   55 1
    59   32   56 1
    60   32   57 1
    61   33   58 1
    62   33   59 1
@<TRIPOS>MOLECULE
CHEMBL17859
   32    34     0     0     0
SMALL
USER_CHARGES

@<TRIPOS>ATOM
      1 C1          0.3721    1.1579   -0.4513 C.2       1 <0>         0.2602
      2 N1          1.5995    1.5396   -0.6545 N.2       1 <0>        -0.4507
      3 C2          2.4008    0.4510   -0.7474 C.ar      1 <0>        -0.1077
      4 C3          3.7762    0.2517   -0.9569 C.ar      1 <0>         0.5253
      5 N2          4.2377   -0.9938   -0.9924 N.ar      1 <0>        -0.5772
      6 C4          3.4293   -2.0279   -0.8354 C.ar      1 <0>         0.4318
      7 N3          2.1344   -1.8885   -0.6372 N.ar      1 <0>        -0.5319
      8 C5          1.5833   -0.6799   -0.5861 C.ar      1 <0>         0.3250
      9 N4          0.3102   -0.2032   -0.4013 N.pl3     1 <0>        -0.4619
     10 C6         -0.8949   -1.0089   -0.1890 C.3       1 <0>         0.1940
     11 C7         -1.5732   -1.3477   -1.5383 C.3       1 <0>         0.0955
     12 C8         -3.0993   -1.4027   -1.3587 C.3       1 <0>         0.0774
     13 C9         -3.5400   -0.1373   -0.5687 C.3       1 <0>        -0.0823
     14 S1         -2.1884   -0.0313    0.6791 S.3       1 <0>        -0.1983
     15 C10        -4.8980   -0.3496    0.1033 C.3       1 <0>         0.0900
     16 O1         -5.8616   -0.7317   -0.8803 O.3       1 <0>        -0.5725
     17 O2         -3.4572   -2.5771   -0.6274 O.3       1 <0>        -0.5344
     18 O3         -1.1038   -2.6160   -2.0000 O.3       1 <0>        -0.5263
     19 Cl1         4.0987   -3.6286   -0.8930 Cl        1 <0>         0.0369
     20 N5          4.6302    1.3279   -1.1227 N.pl3     1 <0>        -0.8096
     21 H1         -0.4720    1.8214   -0.3349 H         1 <0>         0.2295
     22 H2         -0.6583   -1.9163    0.3665 H         1 <0>         0.1524
     23 H3         -1.3226   -0.5814   -2.2718 H         1 <0>         0.0851
     24 H4         -3.5847   -1.4150   -2.3346 H         1 <0>         0.0924
     25 H5         -3.5536    0.7433   -1.2108 H         1 <0>         0.1212
     26 H6         -4.8132   -1.1358    0.8535 H         1 <0>         0.0707
     27 H7         -5.2152    0.5768    0.5821 H         1 <0>         0.0638
     28 H8         -6.7479   -0.8834   -0.5245 H         1 <0>         0.3929
     29 H9         -4.4107   -2.7229   -0.5596 H         1 <0>         0.3858
     30 H10        -1.4872   -2.8941   -2.8431 H         1 <0>         0.3862
     31 H11         4.2813    2.2326   -1.0951 H         1 <0>         0.4226
     32 H12         5.5776    1.1776   -1.2666 H         1 <0>         0.4139
@<TRIPOS>BOND
     1    1    9 1
     2    1    2 2
     3    1   21 1
     4    2    3 1
     5    3    8 ar
     6    3    4 ar
     7    4    5 ar
     8    4   20 1
     9    5    6 ar
    10    6    7 ar
    11    6   19 1
    12    7    8 ar
    13    8    9 1
    14    9   10 1
    15   10   14 1
    16   10   11 1
    17   10   22 1
    18   11   12 1
    19   11   18 1
    20   11   23 1
    21   12   13 1
    22   12   17 1
    23   12   24 1
    24   13   14 1
    25   13   15 1
    26   13   25 1
    27   15   16 1
    28   15   26 1
    29   15   27 1
    30   16   28 1
    31   17   29 1
    32   18   30 1
    33   20   31 1
    34   20   32 1
@<TRIPOS>MOLECULE
CHEMBL456068
   43    45     0     0     0
SMALL
USER_CHARGES

@<TRIPOS>ATOM
      1 C1         -2.8090    1.0861    0.8024 C.3       1 <0>        -0.1723
      2 C2         -2.6358   -0.3662    0.4391 C.2       1 <0>         0.5001
      3 O1         -3.5942   -1.0224    0.0904 O.2       1 <0>        -0.4669
      4 N1         -1.4159   -0.9357    0.5018 N.am      1 <0>        -0.6593
      5 C3         -1.2722   -2.2997    0.2687 C.ar      1 <0>         0.4386
      6 C4         -0.0368   -2.9171    0.4391 C.ar      1 <0>        -0.3397
      7 C5          0.0617   -4.2854    0.1950 C.ar      1 <0>         0.4894
      8 N2         -1.0209   -4.9540   -0.1907 N.ar      1 <0>        -0.5824
      9 C6         -2.1846   -4.3323   -0.3433 C.ar      1 <0>         0.4726
     10 N3         -2.3144   -3.0304   -0.1142 N.ar      1 <0>        -0.5377
     11 C7         -3.3637   -5.1080   -0.7731 C.2       1 <0>        -0.1194
     12 C8         -4.6458   -4.6780   -0.9971 C.2       1 <0>        -0.0915
     13 C9         -5.5902   -5.5941   -1.3982 C.2       1 <0>        -0.1680
     14 C10        -5.2258   -6.8937   -1.5600 C.2       1 <0>        -0.1690
     15 S1         -3.4901   -6.8498   -1.1445 S.3       1 <0>         0.1113
     16 N4          1.2730   -4.9410    0.3518 N.pl3     1 <0>        -0.5911
     17 C11         1.4772   -6.3990    0.2742 C.3       1 <0>         0.1200
     18 C12         2.7634   -6.6636    1.0959 C.3       1 <0>        -0.1335
     19 C13         3.6201   -5.4191    0.7429 C.3       1 <0>        -0.1247
     20 C14         2.5679   -4.2971    0.6166 C.3       1 <0>         0.1471
     21 H1          2.5175   -3.7322    1.5475 H         1 <0>         0.0901
     22 C15         2.9325   -3.3660   -0.5414 C.3       1 <0>         0.0419
     23 O2          3.1610   -4.1397   -1.7209 O.3       1 <0>        -0.3793
     24 C16         3.5101   -3.3618   -2.8677 C.3       1 <0>         0.0317
     25 H2         -3.8567    1.3659    0.6918 H         1 <0>         0.0988
     26 H3         -2.4985    1.2417    1.8356 H         1 <0>         0.0920
     27 H4         -2.1971    1.7011    0.1426 H         1 <0>         0.0914
     28 H5         -0.6381   -0.3945    0.7094 H         1 <0>         0.4197
     29 H6          0.8261   -2.3485    0.7530 H         1 <0>         0.1399
     30 H7         -4.9096   -3.6396   -0.8609 H         1 <0>         0.1491
     31 H8         -6.6085   -5.2848   -1.5819 H         1 <0>         0.1387
     32 H9         -5.8298   -7.7352   -1.8654 H         1 <0>         0.1899
     33 H10         0.6304   -6.9247    0.7153 H         1 <0>         0.0785
     34 H11         1.6186   -6.7077   -0.7616 H         1 <0>         0.0699
     35 H12         2.5451   -6.6976    2.1633 H         1 <0>         0.0752
     36 H13         3.2538   -7.5808    0.7696 H         1 <0>         0.0874
     37 H14         4.3280   -5.1989    1.5420 H         1 <0>         0.0835
     38 H15         4.1393   -5.5643   -0.2044 H         1 <0>         0.0920
     39 H16         2.1143   -2.6678   -0.7177 H         1 <0>         0.0557
     40 H17         3.8363   -2.8107   -0.2904 H         1 <0>         0.0622
     41 H18         2.7039   -2.6635   -3.0922 H         1 <0>         0.0389
     42 H19         4.4259   -2.8064   -2.6649 H         1 <0>         0.0421
     43 H20         3.6670   -4.0221   -3.7206 H         1 <0>         0.0873
@<TRIPOS>BOND
     1    1    2 1
     2    1   25 1
     3    1   26 1
     4    1   27 1
     5    2    3 2
     6    2    4 am
     7    4    5 1
     8    4   28 1
     9    5   10 ar
    10    5    6 ar
    11    6    7 ar
    12    6   29 1
    13    7    8 ar
    14    7   16 1
    15    8    9 ar
    16    9   10 ar
    17    9   11 1
    18   11   15 1
    19   11   12 2
    20   12   13 1
    21   12   30 1
    22   13   14 2
    23   13   31 1
    24   14   15 1
    25   14   32 1
    26   16   20 1
    27   16   17 1
    28   17   18 1
    29   17   33 1
    30   17   34 1
    31   18   19 1
    32   18   35 1
    33   18   36 1
    34   19   20 1
    35   19   37 1
    36   19   38 1
    37   20   21 1
    38   20   22 1
    39   22   23 1
    40   22   39 1
    41   22   40 1
    42   23   24 1
    43   24   41 1
    44   24   42 1
    45   24   43 1
@<TRIPOS>MOLECULE
CHEMBL466453
   59    62     0     0     0
SMALL
USER_CHARGES

@<TRIPOS>ATOM
      1 C1         -0.0187    1.5258    0.0104 C.3       1 <0>        -0.1487
      2 C2          0.0021   -0.0041    0.0020 C.3       1 <0>        -0.1412
      3 C3          0.7182   -0.4975   -1.2568 C.3       1 <0>         0.1191
      4 N1          0.7381   -1.9623   -1.2648 N.am      1 <0>        -0.5194
      5 C4          1.7919   -2.6458   -0.6722 C.2       1 <0>         0.1504
      6 C5          2.9512   -2.2419   -0.0044 C.2       1 <0>        -0.1932
      7 C6          3.6320   -3.3658    0.3697 C.2       1 <0>         0.1462
      8 N2          2.9322   -4.4643   -0.0448 N.pl3     1 <0>        -0.5015
      9 H1          3.1940   -5.3881    0.0929 H         1 <0>         0.4299
     10 C7          1.7912   -4.0383   -0.6911 C.2       1 <0>        -0.1021
     11 C8          0.7154   -4.7096   -1.3156 C.2       1 <0>         0.5866
     12 O1          0.6860   -5.9269   -1.3481 O.2       1 <0>        -0.5161
     13 N3         -0.2781   -3.9897   -1.8745 N.am      1 <0>        -0.5484
     14 C9         -0.2682   -2.6463   -1.8421 C.2       1 <0>         0.7004
     15 O2         -1.1863   -2.0335   -2.3523 O.2       1 <0>        -0.5377
     16 C10        -1.3933   -4.6851   -2.5218 C.3       1 <0>         0.1132
     17 C11        -2.4979   -4.9437   -1.4952 C.3       1 <0>        -0.1371
     18 C12        -3.6626   -5.6699   -2.1713 C.3       1 <0>        -0.1473
     19 C13         4.9158   -3.3898    1.1025 C.ar      1 <0>        -0.0205
     20 C14         5.5318   -2.1945    1.4766 C.ar      1 <0>        -0.0918
     21 C15         6.7295   -2.2240    2.1607 C.ar      1 <0>        -0.0845
     22 C16         7.3200   -3.4349    2.4759 C.ar      1 <0>        -0.0905
     23 C17         6.7148   -4.6233    2.1076 C.ar      1 <0>        -0.0834
     24 C18         5.5142   -4.6080    1.4283 C.ar      1 <0>        -0.1130
     25 C19         8.6283   -3.4594    3.2233 C.3       1 <0>         0.1256
     26 O3          8.3734   -3.4886    4.6291 O.3       1 <0>        -0.3518
     27 C20         9.4448   -3.5131    5.4443 C.2       1 <0>         0.6626
     28 O4         10.5657   -3.5098    4.9749 O.2       1 <0>        -0.5426
     29 N4          9.2741   -3.5414    6.7809 N.am      1 <0>        -0.6126
     30 C21        10.3897   -3.5669    7.6297 C.2       1 <0>         0.3136
     31 C22        11.7341   -3.5608    7.2251 C.2       1 <0>        -0.2689
     32 C23        12.5024   -3.5920    8.3377 C.2       1 <0>         0.0724
     33 N5         11.6803   -3.6171    9.4078 N.pl3     1 <0>        -0.4662
     34 H2         11.9558   -3.6420   10.3375 H         1 <0>         0.4452
     35 N6         10.3598   -3.5950    8.9412 N.2       1 <0>        -0.3151
     36 H3          1.0039    1.9031    0.0027 H         1 <0>         0.0579
     37 H4         -0.5459    1.8868   -0.8726 H         1 <0>         0.0593
     38 H5         -0.5289    1.8773    0.9072 H         1 <0>         0.0610
     39 H6          0.5293   -0.3651    0.8851 H         1 <0>         0.0682
     40 H7         -1.0205   -0.3814    0.0098 H         1 <0>         0.0695
     41 H8          0.1910   -0.1364   -2.1398 H         1 <0>         0.1001
     42 H9          1.7408   -0.1202   -1.2645 H         1 <0>         0.0929
     43 H10         3.2549   -1.2225    0.1827 H         1 <0>         0.1597
     44 H11        -1.7859   -4.0683   -3.3303 H         1 <0>         0.1019
     45 H12        -1.0436   -5.6349   -2.9264 H         1 <0>         0.1003
     46 H13        -2.1053   -5.5605   -0.6868 H         1 <0>         0.0667
     47 H14        -2.8476   -3.9939   -1.0907 H         1 <0>         0.0686
     48 H15        -4.4495   -5.8542   -1.4399 H         1 <0>         0.0611
     49 H16        -4.0551   -5.0532   -2.9797 H         1 <0>         0.0595
     50 H17        -3.3129   -6.6197   -2.5758 H         1 <0>         0.0587
     51 H18         5.0721   -1.2487    1.2308 H         1 <0>         0.1373
     52 H19         7.2074   -1.2998    2.4504 H         1 <0>         0.1350
     53 H20         7.1813   -5.5652    2.3562 H         1 <0>         0.1327
     54 H21         5.0405   -5.5365    1.1454 H         1 <0>         0.1244
     55 H22         9.1932   -4.3468    2.9380 H         1 <0>         0.0845
     56 H23         9.2043   -2.5673    2.9770 H         1 <0>         0.0855
     57 H24         8.3794   -3.5441    7.1557 H         1 <0>         0.4241
     58 H25        12.0913   -3.5359    6.2062 H         1 <0>         0.1752
     59 H26        13.5820   -3.5965    8.3650 H         1 <0>         0.1843
@<TRIPOS>BOND
     1    1    2 1
     2    1   36 1
     3    1   37 1
     4    1   38 1
     5    2    3 1
     6    2   39 1
     7    2   40 1
     8    3    4 1
     9    3   41 1
    10    3   42 1
    11    4   14 am
    12    4    5 1
    13    5   10 2
    14    5    6 1
    15    6    7 2
    16    6   43 1
    17    7    8 1
    18    7   19 1
    19    8    9 1
    20    8   10 1
    21   10   11 1
    22   11   12 2
    23   11   13 am
    24   13   14 am
    25   13   16 1
    26   14   15 2
    27   16   17 1
    28   16   44 1
    29   16   45 1
    30   17   18 1
    31   17   46 1
    32   17   47 1
    33   18   48 1
    34   18   49 1
    35   18   50 1
    36   19   24 ar
    37   19   20 ar
    38   20   21 ar
    39   20   51 1
    40   21   22 ar
    41   21   52 1
    42   22   23 ar
    43   22   25 1
    44   23   24 ar
    45   23   53 1
    46   24   54 1
    47   25   26 1
    48   25   55 1
    49   25   56 1
    50   26   27 1
    51   27   28 2
    52   27   29 am
    53   29   30 1
    54   29   57 1
    55   30   35 2
    56   30   31 1
    57   31   32 2
    58   31   58 1
    59   32   33 1
    60   32   59 1
    61   33   34 1
    62   33   35 1
@<TRIPOS>MOLECULE
CHEMBL608663
   56    59     0     0     0
SMALL
USER_CHARGES

@<TRIPOS>ATOM
      1 C1         -0.0164    1.3601    0.0095 C.2       1 <0>         0.2691
      2 N1          1.2003    1.8207    0.0004 N.2       1 <0>        -0.4590
      3 C2          2.0748    0.7851   -0.0135 C.ar      1 <0>        -0.1395
      4 C3          3.4767    0.6778   -0.0279 C.ar      1 <0>         0.5366
      5 N2          4.0210   -0.5334   -0.0400 N.ar      1 <0>        -0.5932
      6 C4          3.2657   -1.6250   -0.0386 C.ar      1 <0>         0.6478
      7 N3          1.9437   -1.5691   -0.0253 N.ar      1 <0>        -0.6120
      8 C5          1.3165   -0.3973   -0.0126 C.ar      1 <0>         0.3506
      9 N4          0.0021   -0.0041    0.0020 N.pl3     1 <0>        -0.4654
     10 C6         -1.1669   -0.8870    0.0089 C.3       1 <0>         0.3155
     11 C7         -1.5288   -1.2881   -1.4374 C.3       1 <0>         0.0769
     12 H1         -1.1658   -2.2905   -1.6643 H         1 <0>         0.0965
     13 C8         -3.0813   -1.2555   -1.4098 C.3       1 <0>         0.0471
     14 H2         -3.4870   -2.1903   -1.0232 H         1 <0>         0.0924
     15 C9         -3.3334   -0.0872   -0.4237 C.3       1 <0>         0.0516
     16 H3         -3.2629    0.8684   -0.9433 H         1 <0>         0.0987
     17 O1         -2.2939   -0.1969    0.5615 O.3       1 <0>        -0.3461
     18 C10        -4.7077   -0.2335    0.2327 C.3       1 <0>         0.0781
     19 O2         -4.9704    0.9103    1.0480 O.3       1 <0>        -0.5625
     20 O3         -3.6133   -0.9627   -2.7033 O.3       1 <0>        -0.5427
     21 O4         -1.0127   -0.3389   -2.3726 O.3       1 <0>        -0.5328
     22 N5          3.8829   -2.8658   -0.0520 N.pl3     1 <0>        -0.5502
     23 N6          5.2811   -2.9525   -0.0667 N.2       1 <0>        -0.2077
     24 C11         5.8512   -4.0986   -0.0791 C.2       1 <0>         0.0604
     25 C12         7.3552   -4.1919   -0.0949 C.3       1 <0>        -0.0617
     26 C13         7.8249   -5.0561    1.0770 C.3       1 <0>        -0.0807
     27 C14         7.4763   -4.3614    2.3948 C.3       1 <0>        -0.1132
     28 C15         7.9460   -5.2255    3.5668 C.3       1 <0>        -0.1204
     29 C16         9.4607   -5.4234    3.4797 C.3       1 <0>        -0.1213
     30 C17         9.8093   -6.1181    2.1618 C.3       1 <0>        -0.1198
     31 C18         9.3396   -5.2539    0.9899 C.3       1 <0>        -0.1141
     32 N7          4.2721    1.8100   -0.0299 N.pl3     1 <0>        -0.8151
     33 H4         -0.9091    1.9678    0.0254 H         1 <0>         0.2137
     34 H5         -0.9535   -1.7784    0.5988 H         1 <0>         0.1337
     35 H6         -5.4727   -0.3126   -0.5397 H         1 <0>         0.0634
     36 H7         -4.7214   -1.1311    0.8509 H         1 <0>         0.0587
     37 H8         -5.8269    0.8856    1.4962 H         1 <0>         0.3855
     38 H9         -4.5794   -0.9322   -2.7335 H         1 <0>         0.3900
     39 H10        -1.2137   -0.5467   -3.2954 H         1 <0>         0.3926
     40 H11         3.3468   -3.6742   -0.0513 H         1 <0>         0.3997
     41 H12         5.2543   -4.9987   -0.0783 H         1 <0>         0.1062
     42 H13         7.6815   -4.6425   -1.0323 H         1 <0>         0.0886
     43 H14         7.7822   -3.1932   -0.0039 H         1 <0>         0.0852
     44 H15         7.3289   -6.0258    1.0351 H         1 <0>         0.0735
     45 H16         7.9724   -3.3917    2.4367 H         1 <0>         0.0646
     46 H17         6.3973   -4.2204    2.4569 H         1 <0>         0.0581
     47 H18         7.6977   -4.7306    4.5056 H         1 <0>         0.0598
     48 H19         7.4500   -6.1952    3.5249 H         1 <0>         0.0600
     49 H20         9.9568   -4.4537    3.5215 H         1 <0>         0.0617
     50 H21         9.7953   -6.0390    4.3146 H         1 <0>         0.0596
     51 H22        10.8884   -6.2590    2.0997 H         1 <0>         0.0617
     52 H23         9.3132   -7.0878    2.1200 H         1 <0>         0.0611
     53 H24         9.5880   -5.7489    0.0510 H         1 <0>         0.0641
     54 H25         9.8357   -4.2843    1.0317 H         1 <0>         0.0649
     55 H26         3.8636    2.6897   -0.0213 H         1 <0>         0.4199
     56 H27         5.2382    1.7240   -0.0398 H         1 <0>         0.4100
@<TRIPOS>BOND
     1    1    9 1
     2    1    2 2
     3    1   33 1
     4    2    3 1
     5    3    8 ar
     6    3    4 ar
     7    4    5 ar
     8    4   32 1
     9    5    6 ar
    10    6    7 ar
    11    6   22 1
    12    7    8 ar
    13    8    9 1
    14    9   10 1
    15   10   17 1
    16   10   11 1
    17   10   34 1
    18   11   12 1
    19   11   13 1
    20   11   21 1
    21   13   14 1
    22   13   15 1
    23   13   20 1
    24   15   16 1
    25   15   17 1
    26   15   18 1
    27   18   19 1
    28   18   35 1
    29   18   36 1
    30   19   37 1
    31   20   38 1
    32   21   39 1
    33   22   23 1
    34   22   40 1
    35   23   24 2
    36   24   25 1
    37   24   41 1
    38   25   26 1
    39   25   42 1
    40   25   43 1
    41   26   31 1
    42   26   27 1
    43   26   44 1
    44   27   28 1
    45   27   45 1
    46   27   46 1
    47   28   29 1
    48   28   47 1
    49   28   48 1
    50   29   30 1
    51   29   49 1
    52   29   50 1
    53   30   31 1
    54   30   51 1
    55   30   52 1
    56   31   53 1
    57   31   54 1
    58   32   55 1
    59   32   56 1
@<TRIPOS>MOLECULE
CHEMBL168892
   35    37     0     0     0
SMALL
USER_CHARGES

@<TRIPOS>ATOM
      1 C1         -0.0173    1.4248    0.0099 C.3       1 <0>         0.0264
      2 O1          0.0021   -0.0041    0.0020 O.3       1 <0>        -0.3160
      3 C2          0.6258   -0.6184    1.0415 C.ar      1 <0>         0.1233
      4 C3          1.2023    0.1401    2.0513 C.ar      1 <0>        -0.1918
      5 C4          1.8380   -0.4804    3.1100 C.ar      1 <0>        -0.0835
      6 C5          1.9033   -1.8583    3.1692 C.ar      1 <0>        -0.1107
      7 C6          1.3268   -2.6269    2.1600 C.ar      1 <0>         0.0212
      8 C7          0.6814   -2.0012    1.0963 C.ar      1 <0>        -0.1177
      9 C8          1.3956   -4.1081    2.2214 C.2       1 <0>         0.2718
     10 N1          1.9770   -4.8232    3.1938 N.2       1 <0>        -0.5166
     11 C9          1.8563   -6.0989    2.9372 C.2       1 <0>         0.2914
     12 N2          1.1859   -6.2350    1.7789 N.pl3     1 <0>        -0.4772
     13 H1          0.9489   -7.0668    1.3399 H         1 <0>         0.4427
     14 N3          0.8911   -4.9362    1.3332 N.2       1 <0>        -0.2967
     15 C10         2.3786   -7.2245    3.7922 C.3       1 <0>        -0.0005
     16 C11         3.8555   -7.0353    4.0244 C.ar      1 <0>        -0.0795
     17 C12         4.7695   -7.5821    3.1428 C.ar      1 <0>        -0.0957
     18 C13         6.1242   -7.4089    3.3552 C.ar      1 <0>        -0.1137
     19 C14         6.5660   -6.6888    4.4495 C.ar      1 <0>        -0.0860
     20 C15         5.6521   -6.1413    5.3314 C.ar      1 <0>        -0.0898
     21 C16         4.2961   -6.3104    5.1155 C.ar      1 <0>        -0.0606
     22 Br1         6.2557   -5.1567    6.8288 Br        1 <0>        -0.0464
     23 H2          1.0053    1.8021    0.0021 H         1 <0>         0.0567
     24 H3         -0.5445    1.7859   -0.8732 H         1 <0>         0.1017
     25 H4         -0.5275    1.7763    0.9067 H         1 <0>         0.0568
     26 H5          1.1542    1.2183    2.0092 H         1 <0>         0.1320
     27 H6          2.2853    0.1140    3.8929 H         1 <0>         0.1328
     28 H7          2.4013   -2.3404    3.9974 H         1 <0>         0.1380
     29 H8          0.2295   -2.5927    0.3137 H         1 <0>         0.1387
     30 H9          1.8575   -7.2255    4.7496 H         1 <0>         0.1150
     31 H10         2.2093   -8.1745    3.2854 H         1 <0>         0.1024
     32 H11         4.4248   -8.1450    2.2880 H         1 <0>         0.1272
     33 H12         6.8378   -7.8365    2.6665 H         1 <0>         0.1334
     34 H13         7.6245   -6.5541    4.6158 H         1 <0>         0.1336
     35 H14         3.5820   -5.8799    5.8018 H         1 <0>         0.1374
@<TRIPOS>BOND
     1    1    2 1
     2    1   23 1
     3    1   24 1
     4    1   25 1
     5    2    3 1
     6    3    8 ar
     7    3    4 ar
     8    4    5 ar
     9    4   26 1
    10    5    6 ar
    11    5   27 1
    12    6    7 ar
    13    6   28 1
    14    7    8 ar
    15    7    9 1
    16    8   29 1
    17    9   14 2
    18    9   10 1
    19   10   11 2
    20   11   12 1
    21   11   15 1
    22   12   13 1
    23   12   14 1
    24   15   16 1
    25   15   30 1
    26   15   31 1
    27   16   21 ar
    28   16   17 ar
    29   17   18 ar
    30   17   32 1
    31   18   19 ar
    32   18   33 1
    33   19   20 ar
    34   19   34 1
    35   20   21 ar
    36   20   22 1
    37   21   35 1
@<TRIPOS>MOLECULE
CHEMBL257429
   86    91     0     0     0
SMALL
USER_CHARGES

@<TRIPOS>ATOM
      1 C1         -2.2688    1.4569    0.1599 C.3       1 <0>         0.0297
      2 O1         -2.5322    0.0535    0.2147 O.3       1 <0>        -0.3819
      3 C2         -3.8056   -0.2776    0.7723 C.3       1 <0>         0.0633
      4 C3         -3.9788   -1.7977    0.7813 C.3       1 <0>         0.0932
      5 H1         -3.8204   -2.1946   -0.2215 H         1 <0>         0.1076
      6 C4         -5.3940   -2.1610    1.2711 C.3       1 <0>         0.0471
      7 H2         -5.9437   -1.2620    1.5499 H         1 <0>         0.0918
      8 C5         -5.1485   -3.0528    2.5125 C.3       1 <0>         0.0368
      9 H3         -5.2211   -2.4699    3.4307 H         1 <0>         0.0886
     10 C6         -3.6957   -3.5402    2.2801 C.3       1 <0>         0.3185
     11 H4         -3.6793   -4.3821    1.5880 H         1 <0>         0.1217
     12 O2         -3.0415   -2.3911    1.6954 O.3       1 <0>        -0.3458
     13 N1         -3.0650   -3.9066    3.5506 N.pl3     1 <0>        -0.4657
     14 C7         -2.2793   -3.1032    4.3223 C.2       1 <0>         0.2744
     15 N2         -1.8876   -3.7495    5.3818 N.2       1 <0>        -0.4576
     16 C8         -2.3955   -5.0052    5.3575 C.ar      1 <0>        -0.0938
     17 C9         -3.1616   -5.1193    4.1849 C.ar      1 <0>         0.3130
     18 N3         -3.7785   -6.2674    3.9256 N.ar      1 <0>        -0.5349
     19 C10        -3.6782   -7.2851    4.7546 C.ar      1 <0>         0.3637
     20 N4         -2.9731   -7.2243    5.8694 N.ar      1 <0>        -0.5844
     21 C11        -2.3145   -6.1206    6.2081 C.ar      1 <0>         0.5155
     22 N5         -1.5791   -6.0661    7.3791 N.pl3     1 <0>        -0.6819
     23 C12        -1.5061   -7.2392    8.2536 C.3       1 <0>         0.1391
     24 C13        -0.6370   -6.9151    9.4703 C.3       1 <0>        -0.0203
     25 C14        -0.6614   -8.0775   10.4291 C.ar      1 <0>        -0.0742
     26 C15        -0.9823   -7.8710   11.7577 C.ar      1 <0>        -0.1090
     27 C16        -1.0047   -8.9373   12.6371 C.ar      1 <0>        -0.1143
     28 C17        -0.7067  -10.2102   12.1878 C.ar      1 <0>        -0.1168
     29 C18        -0.3867  -10.4168   10.8590 C.ar      1 <0>        -0.1175
     30 C19        -0.3685   -9.3512    9.9787 C.ar      1 <0>        -0.1135
     31 C20         0.7797   -6.6627    9.0228 C.ar      1 <0>        -0.0820
     32 C21         1.4255   -7.5843    8.2200 C.ar      1 <0>        -0.1108
     33 C22         2.7250   -7.3527    7.8095 C.ar      1 <0>        -0.1176
     34 C23         3.3786   -6.1995    8.2015 C.ar      1 <0>        -0.1165
     35 C24         2.7325   -5.2775    9.0036 C.ar      1 <0>        -0.1126
     36 C25         1.4315   -5.5069    9.4105 C.ar      1 <0>        -0.1123
     37 C26        -4.3953   -8.5674    4.4190 C.3       1 <0>        -0.0643
     38 C27        -3.4729   -9.4665    3.5934 C.3       1 <0>        -0.0049
     39 N6         -4.1719  -10.7164    3.2662 N.4       1 <0>        -0.5057
     40 C28        -3.2863  -11.5797    2.4735 C.3       1 <0>         0.0264
     41 C29        -2.9964  -10.9137    1.1270 C.3       1 <0>        -0.1418
     42 C30        -2.0740  -11.8128    0.3013 C.3       1 <0>        -0.1179
     43 C31        -2.7543  -13.1630    0.0665 C.3       1 <0>        -0.1316
     44 C32        -3.0442  -13.8290    1.4131 C.3       1 <0>        -0.1176
     45 C33        -3.9666  -12.9299    2.2387 C.3       1 <0>        -0.1401
     46 O3         -6.0588   -4.1541    2.5373 O.3       1 <0>        -0.5301
     47 O4         -6.1014   -2.8860    0.2632 O.3       1 <0>        -0.5378
     48 H5         -1.2838    1.6250   -0.2755 H         1 <0>         0.0927
     49 H6         -3.0256    1.9449   -0.4543 H         1 <0>         0.0454
     50 H7         -2.2961    1.8713    1.1676 H         1 <0>         0.0453
     51 H8         -3.8648    0.1008    1.7928 H         1 <0>         0.0621
     52 H9         -4.5942    0.1744    0.1709 H         1 <0>         0.0746
     53 H10        -2.0198   -2.0812    4.0888 H         1 <0>         0.2272
     54 H11        -1.1119   -5.2511    7.6209 H         1 <0>         0.4228
     55 H12        -2.5091   -7.5084    8.5848 H         1 <0>         0.0786
     56 H13        -1.0680   -8.0738    7.7061 H         1 <0>         0.0746
     57 H14        -1.0249   -6.0259    9.9674 H         1 <0>         0.0949
     58 H15        -1.2152   -6.8765   12.1087 H         1 <0>         0.1230
     59 H16        -1.2547   -8.7758   13.6753 H         1 <0>         0.1252
     60 H17        -0.7235  -11.0431   12.8751 H         1 <0>         0.1237
     61 H18        -0.1535  -11.4112   10.5081 H         1 <0>         0.1223
     62 H19        -0.1221   -9.5132    8.9397 H         1 <0>         0.1194
     63 H20         0.9149   -8.4853    7.9137 H         1 <0>         0.1176
     64 H21         3.2298   -8.0731    7.1828 H         1 <0>         0.1208
     65 H22         4.3941   -6.0189    7.8813 H         1 <0>         0.1230
     66 H23         3.2432   -4.3766    9.3101 H         1 <0>         0.1248
     67 H24         0.9254   -4.7849   10.0341 H         1 <0>         0.1227
     68 H25        -4.6733   -9.0799    5.3399 H         1 <0>         0.1140
     69 H26        -5.2930   -8.3417    3.8435 H         1 <0>         0.1132
     70 H27        -3.1948   -8.9539    2.6725 H         1 <0>         0.1363
     71 H28        -2.5751   -9.6922    4.1689 H         1 <0>         0.1361
     72 H29        -4.4293  -11.1909    4.1187 H         1 <0>         0.4291
     73 H30        -2.3510  -11.7329    3.0119 H         1 <0>         0.1390
     74 H31        -3.9316  -10.7605    0.5885 H         1 <0>         0.0882
     75 H32        -2.5117   -9.9518    1.2942 H         1 <0>         0.0865
     76 H33        -1.8674  -11.3383   -0.6580 H         1 <0>         0.0841
     77 H34        -1.1387  -11.9660    0.8398 H         1 <0>         0.0739
     78 H35        -3.6896  -13.0098   -0.4719 H         1 <0>         0.0705
     79 H36        -2.0972  -13.8035   -0.5216 H         1 <0>         0.0788
     80 H37        -3.5289  -14.7909    1.2458 H         1 <0>         0.0848
     81 H38        -2.1089  -13.9822    1.9515 H         1 <0>         0.0743
     82 H39        -4.1731  -13.4044    3.1981 H         1 <0>         0.0881
     83 H40        -4.9019  -12.7767    1.7003 H         1 <0>         0.0875
     84 H41        -6.9888   -3.8946    2.5908 H         1 <0>         0.3850
     85 H42        -6.9988   -3.1403    0.5183 H         1 <0>         0.3874
     86 H43        -5.0029  -10.5075    2.7335 H         1 <0>         0.4271
@<TRIPOS>BOND
     1    1    2 1
     2    1   48 1
     3    1   49 1
     4    1   50 1
     5    2    3 1
     6    3    4 1
     7    3   51 1
     8    3   52 1
     9    4    5 1
    10    4   12 1
    11    4    6 1
    12    6    7 1
    13    6    8 1
    14    6   47 1
    15    8    9 1
    16    8   10 1
    17    8   46 1
    18   10   11 1
    19   10   12 1
    20   10   13 1
    21   13   17 1
    22   13   14 1
    23   14   15 2
    24   14   53 1
    25   15   16 1
    26   16   21 ar
    27   16   17 ar
    28   17   18 ar
    29   18   19 ar
    30   19   20 ar
    31   19   37 1
    32   20   21 ar
    33   21   22 1
    34   22   23 1
    35   22   54 1
    36   23   24 1
    37   23   55 1
    38   23   56 1
    39   24   25 1
    40   24   31 1
    41   24   57 1
    42   25   30 ar
    43   25   26 ar
    44   26   27 ar
    45   26   58 1
    46   27   28 ar
    47   27   59 1
    48   28   29 ar
    49   28   60 1
    50   29   30 ar
    51   29   61 1
    52   30   62 1
    53   31   36 ar
    54   31   32 ar
    55   32   33 ar
    56   32   63 1
    57   33   34 ar
    58   33   64 1
    59   34   35 ar
    60   34   65 1
    61   35   36 ar
    62   35   66 1
    63   36   67 1
    64   37   38 1
    65   37   68 1
    66   37   69 1
    67   38   39 1
    68   38   70 1
    69   38   71 1
    70   39   40 1
    71   39   72 1
    72   39   86 1
    73   40   45 1
    74   40   41 1
    75   40   73 1
    76   41   42 1
    77   41   74 1
    78   41   75 1
    79   42   43 1
    80   42   76 1
    81   42   77 1
    82   43   44 1
    83   43   78 1
    84   43   79 1
    85   44   45 1
    86   44   80 1
    87   44   81 1
    88   45   82 1
    89   45   83 1
    90   46   84 1
    91   47   85 1
@<TRIPOS>MOLECULE
CHEMBL173941
   49    53     0     0     0
SMALL
USER_CHARGES

@<TRIPOS>ATOM
      1 C1          0.0119    1.2912   -0.7369 C.2       1 <0>        -0.2216
      2 C2          1.3514    1.7257   -0.6913 C.2       1 <0>        -0.0891
      3 C3          2.1126    0.6242   -0.4553 C.2       1 <0>        -0.0054
      4 O1          1.2920   -0.4397   -0.3588 O.3       1 <0>        -0.1584
      5 C4          0.0215   -0.0402   -0.5285 C.2       1 <0>         0.0249
      6 C5          3.5845    0.5986   -0.3268 C.2       1 <0>         0.4160
      7 N1          4.3889    1.6652   -0.4191 N.2       1 <0>        -0.4672
      8 C6          5.6466    1.2891   -0.2561 C.2       1 <0>         0.5463
      9 N2          6.8125    1.9510   -0.2569 N.2       1 <0>        -0.5081
     10 C7          7.9464    1.2979   -0.0627 C.2       1 <0>         0.6560
     11 N3          7.9591   -0.0230    0.1366 N.pl3     1 <0>        -0.6000
     12 C8          6.8334   -0.7138    0.1452 C.cat     1 <0>         0.7691
     13 N4          5.6488   -0.0661   -0.0520 N.pl3     1 <0>        -0.4040
     14 N5          4.3122   -0.4781   -0.0974 N.2       1 <0>        -0.2959
     15 N6          6.8551   -2.0686    0.3499 N.pl3     1 <0>        -0.7469
     16 N7          9.1377    1.9935   -0.0665 N.pl3     1 <0>        -0.5452
     17 C9         10.4248    1.2868    0.0177 C.3       1 <0>         0.1045
     18 C10        11.3269    1.7814   -1.1180 C.3       1 <0>         0.0388
     19 N8         11.4181    3.2465   -1.0640 N.3       1 <0>        -0.5328
     20 C11        10.1065    3.8705   -1.2837 C.3       1 <0>         0.0309
     21 C12         9.1546    3.4612   -0.1610 C.3       1 <0>         0.1202
     22 C13        12.4077    3.7483   -2.0266 C.3       1 <0>         0.1005
     23 C14        12.6534    5.2140   -1.7767 C.ar      1 <0>        -0.1747
     24 C15        11.8799    6.1650   -2.4200 C.ar      1 <0>         0.1637
     25 C16        12.1056    7.5114   -2.1904 C.ar      1 <0>        -0.2000
     26 C17        13.1043    7.9068   -1.3172 C.ar      1 <0>         0.1742
     27 C18        13.8772    6.9558   -0.6733 C.ar      1 <0>        -0.2007
     28 C19        13.6487    5.6093   -0.8996 C.ar      1 <0>         0.1865
     29 F1         14.3998    4.6811   -0.2675 F         1 <0>        -0.1138
     30 F2         13.3251    9.2208   -1.0939 F         1 <0>        -0.1146
     31 F3         10.9052    5.7791   -3.2722 F         1 <0>        -0.1200
     32 H1         -0.8583    1.9089   -0.9027 H         1 <0>         0.1684
     33 H2          1.7051    2.7380   -0.8196 H         1 <0>         0.1701
     34 H3         -0.8484   -0.6797   -0.5024 H         1 <0>         0.2224
     35 H4          7.6998   -2.5246    0.4894 H         1 <0>         0.4468
     36 H5          6.0257   -2.5716    0.3554 H         1 <0>         0.4602
     37 H6         10.8960    1.4974    0.9778 H         1 <0>         0.1191
     38 H7         10.2610    0.2141   -0.0855 H         1 <0>         0.0823
     39 H8         12.3219    1.3507   -1.0060 H         1 <0>         0.1121
     40 H9         10.9047    1.4783   -2.0761 H         1 <0>         0.0523
     41 H10        10.2164    4.9549   -1.2919 H         1 <0>         0.1044
     42 H11         9.7013    3.5384   -2.2396 H         1 <0>         0.0554
     43 H12         8.1513    3.8254   -0.3823 H         1 <0>         0.1242
     44 H13         9.5013    3.8848    0.7815 H         1 <0>         0.1063
     45 H14        13.3412    3.1981   -1.9082 H         1 <0>         0.1032
     46 H15        12.0309    3.6107   -3.0401 H         1 <0>         0.0632
     47 H16        11.5026    8.2533   -2.6929 H         1 <0>         0.1606
     48 H17        14.6566    7.2643    0.0077 H         1 <0>         0.1610
     49 H18         8.8036   -0.4794    0.2761 H         1 <0>         0.4546
@<TRIPOS>BOND
     1    1    5 2
     2    1    2 1
     3    1   32 1
     4    2    3 2
     5    2   33 1
     6    3    4 1
     7    3    6 1
     8    4    5 1
     9    5   34 1
    10    6   14 2
    11    6    7 1
    12    7    8 2
    13    8   13 1
    14    8    9 1
    15    9   10 2
    16   10   11 1
    17   10   16 1
    18   11   12 2
    19   11   49 1
    20   12   13 1
    21   12   15 1
    22   13   14 1
    23   15   35 1
    24   15   36 1
    25   16   21 1
    26   16   17 1
    27   17   18 1
    28   17   37 1
    29   17   38 1
    30   18   19 1
    31   18   39 1
    32   18   40 1
    33   19   20 1
    34   19   22 1
    35   20   21 1
    36   20   41 1
    37   20   42 1
    38   21   43 1
    39   21   44 1
    40   22   23 1
    41   22   45 1
    42   22   46 1
    43   23   28 ar
    44   23   24 ar
    45   24   25 ar
    46   24   31 1
    47   25   26 ar
    48   25   47 1
    49   26   27 ar
    50   26   30 1
    51   27   28 ar
    52   27   48 1
    53   28   29 1
@<TRIPOS>MOLECULE
CHEMBL604026
   56    59     0     0     0
SMALL
USER_CHARGES

@<TRIPOS>ATOM
      1 C1         -0.0187    1.5258    0.0104 C.3       1 <0>        -0.1671
      2 C2          0.0021   -0.0041    0.0020 C.3       1 <0>         0.1128
      3 N1          0.6878   -0.4765   -1.2033 N.am      1 <0>        -0.7282
      4 C3          0.8268   -1.7986   -1.4250 C.2       1 <0>         0.4960
      5 O1          0.3843   -2.5972   -0.6267 O.2       1 <0>        -0.5069
      6 C4          1.5322   -2.2846   -2.6649 C.3       1 <0>         0.0428
      7 H1          2.5301   -1.8492   -2.7172 H         1 <0>         0.1288
      8 C5          0.7217   -1.8886   -3.9178 C.3       1 <0>         0.0518
      9 H2         -0.3249   -1.7189   -3.6651 H         1 <0>         0.0963
     10 C6          0.8760   -3.1431   -4.8202 C.3       1 <0>         0.0779
     11 H3          0.0208   -3.2552   -5.4867 H         1 <0>         0.1032
     12 C7          0.9061   -4.2690   -3.7562 C.3       1 <0>         0.3201
     13 O2          1.6263   -3.7137   -2.6418 O.3       1 <0>        -0.3324
     14 N2          1.6076   -5.4441   -4.2789 N.pl3     1 <0>        -0.4594
     15 C8          2.9233   -5.7482   -4.0911 C.2       1 <0>         0.2907
     16 N3          3.2128   -6.8643   -4.6950 N.2       1 <0>        -0.4644
     17 C9          2.1055   -7.3469   -5.3071 C.ar      1 <0>        -0.0955
     18 C10         1.0597   -6.4443   -5.0428 C.ar      1 <0>         0.3108
     19 N4         -0.1488   -6.6929   -5.5312 N.ar      1 <0>        -0.5392
     20 C11        -0.3723   -7.7795   -6.2576 C.ar      1 <0>         0.4956
     21 N5          0.5864   -8.6608   -6.5286 N.ar      1 <0>        -0.5729
     22 C12         1.8249   -8.4840   -6.0863 C.ar      1 <0>         0.5142
     23 N6          2.8159   -9.4069   -6.3721 N.pl3     1 <0>        -0.8141
     24 C13        -1.6903   -8.0123   -6.7669 C.1       1 <0>        -0.1024
     25 C14        -2.7708   -8.2031   -7.1844 C.1       1 <0>        -0.0893
     26 C15        -4.1256   -8.4424   -7.7080 C.3       1 <0>         0.1713
     27 N7         -4.1395   -9.6941   -8.4768 N.3       1 <0>        -0.5525
     28 C16        -3.2753   -9.5959   -9.6552 C.3       1 <0>         0.0523
     29 C17        -2.9396  -10.9997  -10.1722 C.3       1 <0>        -0.0722
     30 S1         -4.4916  -11.8188  -10.6536 S.3       1 <0>        -0.2737
     31 C18        -5.5451  -11.5740   -9.1901 C.3       1 <0>        -0.0747
     32 C19        -5.5094  -10.0883   -8.8132 C.3       1 <0>         0.0559
     33 O3          2.0984   -3.0988   -5.5591 O.3       1 <0>        -0.5334
     34 O4          1.2850   -0.7342   -4.5440 O.3       1 <0>        -0.5368
     35 H4          1.0039    1.9031    0.0027 H         1 <0>         0.0639
     36 H5         -0.5459    1.8868   -0.8726 H         1 <0>         0.0632
     37 H6         -0.5289    1.8773    0.9072 H         1 <0>         0.0784
     38 H7          0.5293   -0.3651    0.8851 H         1 <0>         0.0718
     39 H8         -1.0205   -0.3814    0.0098 H         1 <0>         0.0713
     40 H9          1.0417    0.1622   -1.8418 H         1 <0>         0.3971
     41 H10        -0.1080   -4.5346   -3.4576 H         1 <0>         0.1312
     42 H11         3.6225   -5.1506   -3.5251 H         1 <0>         0.2228
     43 H12         3.7152   -9.2733   -6.0341 H         1 <0>         0.4214
     44 H13         2.6110  -10.1874   -6.9104 H         1 <0>         0.4118
     45 H14        -4.8278   -8.5181   -6.8778 H         1 <0>         0.1107
     46 H15        -4.4163   -7.6151   -8.3554 H         1 <0>         0.0720
     47 H16        -3.7897   -9.0357  -10.4360 H         1 <0>         0.0539
     48 H17        -2.3541   -9.0787   -9.3869 H         1 <0>         0.0904
     49 H18        -2.2803  -10.9247  -11.0369 H         1 <0>         0.1086
     50 H19        -2.4502  -11.5735   -9.3852 H         1 <0>         0.0919
     51 H20        -6.5685  -11.8699   -9.4206 H         1 <0>         0.1109
     52 H21        -5.1671  -12.1724   -8.3612 H         1 <0>         0.0929
     53 H22        -6.1572   -9.9170   -7.9534 H         1 <0>         0.0915
     54 H23        -5.8615   -9.4924   -9.6552 H         1 <0>         0.0552
     55 H24         2.1670   -2.3453   -6.1612 H         1 <0>         0.3957
     56 H25         1.2895    0.0542   -3.9840 H         1 <0>         0.3879
@<TRIPOS>BOND
     1    1    2 1
     2    1   35 1
     3    1   36 1
     4    1   37 1
     5    2    3 1
     6    2   38 1
     7    2   39 1
     8    3    4 am
     9    3   40 1
    10    4    5 2
    11    4    6 1
    12    6    7 1
    13    6   13 1
    14    6    8 1
    15    8    9 1
    16    8   10 1
    17    8   34 1
    18   10   11 1
    19   10   12 1
    20   10   33 1
    21   12   13 1
    22   12   14 1
    23   12   41 1
    24   14   18 1
    25   14   15 1
    26   15   16 2
    27   15   42 1
    28   16   17 1
    29   17   22 ar
    30   17   18 ar
    31   18   19 ar
    32   19   20 ar
    33   20   21 ar
    34   20   24 1
    35   21   22 ar
    36   22   23 1
    37   23   43 1
    38   23   44 1
    39   24   25 3
    40   25   26 1
    41   26   27 1
    42   26   45 1
    43   26   46 1
    44   27   32 1
    45   27   28 1
    46   28   29 1
    47   28   47 1
    48   28   48 1
    49   29   30 1
    50   29   49 1
    51   29   50 1
    52   30   31 1
    53   31   32 1
    54   31   51 1
    55   31   52 1
    56   32   53 1
    57   32   54 1
    58   33   55 1
    59   34   56 1
@<TRIPOS>MOLECULE
CHEMBL482283
   49    54     0     0     0
SMALL
USER_CHARGES

@<TRIPOS>ATOM
      1 C1         -0.0167    1.3785    0.0096 C.ar      1 <0>        -0.1659
      2 C2          1.1816    2.0721    0.0019 C.ar      1 <0>        -0.0662
      3 C3          2.3713    1.3395   -0.0134 C.ar      1 <0>        -0.0959
      4 C4          2.3056   -0.0523   -0.0202 C.ar      1 <0>         0.1114
      5 N1          1.1415   -0.6686   -0.0124 N.ar      1 <0>        -0.4799
      6 C5          0.0021   -0.0041    0.0020 C.ar      1 <0>         0.1011
      7 C6          3.6834    2.0325   -0.0227 C.ar      1 <0>        -0.0949
      8 C7          4.8734    1.2998   -0.0439 C.ar      1 <0>        -0.0621
      9 C8          6.0713    1.9931   -0.0523 C.ar      1 <0>        -0.1557
     10 C9          6.0526    3.3761   -0.0396 C.ar      1 <0>         0.1323
     11 N2          4.9134    4.0404   -0.0196 N.ar      1 <0>        -0.4736
     12 C10         3.7490    3.4239   -0.0163 C.ar      1 <0>         0.1175
     13 C11         7.3541    4.1356   -0.0481 C.3       1 <0>        -0.0848
     14 C12         7.3637    5.1179   -1.2211 C.3       1 <0>         0.1480
     15 N3          8.6290    5.8563   -1.2295 N.pl3     1 <0>        -0.3559
     16 C13         8.8721    7.0315   -0.5839 C.2       1 <0>         0.3725
     17 C14        10.2037    7.3732   -0.8647 C.2       1 <0>        -0.2676
     18 C15        10.7291    6.3643   -1.6917 C.2       1 <0>         0.1318
     19 N4          9.7986    5.4728   -1.8973 N.2       1 <0>        -0.2642
     20 C16        10.7322    8.6096   -0.2873 C.2       1 <0>         0.4064
     21 N5         11.8953    9.2254   -0.3340 N.2       1 <0>        -0.5163
     22 C17        11.8383   10.3499    0.3908 C.2       1 <0>         0.3501
     23 N6         10.6325   10.4697    0.9137 N.2       1 <0>        -0.2997
     24 N7          9.8906    9.3583    0.4938 N.pl3     1 <0>        -0.3762
     25 C18         8.6092    8.9413    0.7094 C.2       1 <0>         0.6916
     26 N8          8.1330    7.8348    0.1938 N.2       1 <0>        -0.5585
     27 N9          7.7864    9.7120    1.4973 N.pl3     1 <0>        -0.8020
     28 C19        12.9501   11.3059    0.5760 C.2       1 <0>         0.0427
     29 C20        12.9064   12.4472    1.3133 C.2       1 <0>        -0.1374
     30 C21        14.1786   13.0444    1.2126 C.2       1 <0>        -0.2200
     31 C22        14.9282   12.2463    0.4270 C.2       1 <0>        -0.0044
     32 O1         14.1845   11.1945    0.0484 O.3       1 <0>        -0.1521
     33 H1         -0.9558    1.9115    0.0259 H         1 <0>         0.1409
     34 H2          1.1963    3.1520    0.0072 H         1 <0>         0.1389
     35 H3          3.2174   -0.6310   -0.0324 H         1 <0>         0.1573
     36 H4         -0.9307   -0.5484    0.0080 H         1 <0>         0.1596
     37 H5          4.8586    0.2199   -0.0531 H         1 <0>         0.1411
     38 H6          7.0104    1.4601   -0.0682 H         1 <0>         0.1418
     39 H7          2.8372    4.0026   -0.0041 H         1 <0>         0.1595
     40 H8          7.4601    4.6854    0.8871 H         1 <0>         0.0918
     41 H9          8.1828    3.4354   -0.1538 H         1 <0>         0.0920
     42 H10         7.2577    4.5681   -2.1563 H         1 <0>         0.1007
     43 H11         6.5351    5.8181   -1.1154 H         1 <0>         0.1115
     44 H12        11.7338    6.3308   -2.0864 H         1 <0>         0.2025
     45 H13         8.1202   10.5347    1.8878 H         1 <0>         0.4261
     46 H14         6.8723    9.4327    1.6624 H         1 <0>         0.4308
     47 H15        12.0600   12.8237    1.8685 H         1 <0>         0.1599
     48 H16        14.4934   13.9673    1.6768 H         1 <0>         0.1593
     49 H17        15.9576   12.4216    0.1511 H         1 <0>         0.2141
@<TRIPOS>BOND
     1    1    6 ar
     2    1    2 ar
     3    1   33 1
     4    2    3 ar
     5    2   34 1
     6    3    4 ar
     7    3    7 1
     8    4    5 ar
     9    4   35 1
    10    5    6 ar
    11    6   36 1
    12    7   12 ar
    13    7    8 ar
    14    8    9 ar
    15    8   37 1
    16    9   10 ar
    17    9   38 1
    18   10   11 ar
    19   10   13 1
    20   11   12 ar
    21   12   39 1
    22   13   14 1
    23   13   40 1
    24   13   41 1
    25   14   15 1
    26   14   42 1
    27   14   43 1
    28   15   19 1
    29   15   16 1
    30   16   26 1
    31   16   17 2
    32   17   18 1
    33   17   20 1
    34   18   19 2
    35   18   44 1
    36   20   24 1
    37   20   21 2
    38   21   22 1
    39   22   23 2
    40   22   28 1
    41   23   24 1
    42   24   25 1
    43   25   26 2
    44   25   27 1
    45   27   45 1
    46   27   46 1
    47   28   32 1
    48   28   29 2
    49   29   30 1
    50   29   47 1
    51   30   31 2
    52   30   48 1
    53   31   32 1
    54   31   49 1
@<TRIPOS>MOLECULE
CHEMBL87981
   60    64     0     0     0
SMALL
USER_CHARGES

@<TRIPOS>ATOM
      1 C1         -0.0167    1.3780    0.0096 C.ar      1 <0>        -0.1140
      2 C2          1.1715    2.0793    0.0020 C.ar      1 <0>        -0.1182
      3 C3          2.3871    1.4081   -0.0116 C.ar      1 <0>        -0.0764
      4 C4          2.4058    0.0311   -0.0139 C.ar      1 <0>        -0.0738
      5 C5          1.2088   -0.6729   -0.0099 C.ar      1 <0>        -0.1128
      6 C6          0.0021   -0.0041    0.0020 C.ar      1 <0>        -0.0823
      7 C7         -1.2911   -0.7778    0.0078 C.3       1 <0>        -0.0918
      8 C8         -1.7398   -1.0319   -1.4327 C.3       1 <0>         0.1480
      9 N1         -2.9970   -1.7840   -1.4271 N.pl3     1 <0>        -0.6987
     10 C9         -3.6006   -2.1331   -2.6240 C.ar      1 <0>         0.6288
     11 N2         -3.0177   -1.7794   -3.7627 N.ar      1 <0>        -0.6255
     12 C10        -3.5572   -2.0907   -4.9357 C.ar      1 <0>         0.5424
     13 C11        -4.7666   -2.8075   -4.9506 C.ar      1 <0>        -0.1495
     14 C12        -5.3466   -3.1603   -3.7212 C.ar      1 <0>         0.3549
     15 N3         -4.7354   -2.8124   -2.5929 N.ar      1 <0>        -0.6167
     16 N4         -6.4981   -3.8406   -4.0270 N.pl3     1 <0>        -0.4672
     17 C13        -6.5956   -3.8886   -5.3871 C.2       1 <0>         0.2656
     18 N5         -5.5791   -3.2821   -5.9267 N.2       1 <0>        -0.4595
     19 C14        -7.4481   -4.4116   -3.0690 C.3       1 <0>         0.3163
     20 C15        -6.9837   -5.8226   -2.6485 C.3       1 <0>         0.0773
     21 H1         -6.4987   -5.7966   -1.6727 H         1 <0>         0.0966
     22 C16        -8.3242   -6.6036   -2.5788 C.3       1 <0>         0.0469
     23 H2         -8.8171   -6.4531   -1.6183 H         1 <0>         0.0923
     24 C17        -9.1180   -5.9285   -3.7256 C.3       1 <0>         0.0518
     25 H3         -8.8433   -6.3668   -4.6850 H         1 <0>         0.0982
     26 O1         -8.7358   -4.5445   -3.6821 O.3       1 <0>        -0.3466
     27 C18       -10.6223   -6.0738   -3.4875 C.3       1 <0>         0.0780
     28 O2        -11.3350   -5.5494   -4.6095 O.3       1 <0>        -0.5625
     29 O3         -8.1242   -7.9944   -2.8391 O.3       1 <0>        -0.5429
     30 O4         -6.1130   -6.3855   -3.6319 O.3       1 <0>        -0.5327
     31 N6         -2.9426   -1.7172   -6.1176 N.pl3     1 <0>        -0.8175
     32 C19         3.6863   -0.7621   -0.0124 C.3       1 <0>        -0.0821
     33 C20         4.8607    0.1126   -0.4464 C.3       1 <0>        -0.1207
     34 C21         4.8474    1.3937    0.3957 C.3       1 <0>        -0.1207
     35 C22         3.6454    2.2359   -0.0272 C.3       1 <0>        -0.0824
     36 H4         -0.9581    1.9071    0.0260 H         1 <0>         0.1216
     37 H5          1.1561    3.1592    0.0064 H         1 <0>         0.1207
     38 H6          1.2226   -1.7528   -0.0169 H         1 <0>         0.1203
     39 H7         -1.1421   -1.7308    0.5153 H         1 <0>         0.0786
     40 H8         -2.0559   -0.2034    0.5306 H         1 <0>         0.0793
     41 H9         -1.8889   -0.0788   -1.9403 H         1 <0>         0.0684
     42 H10        -0.9751   -1.6062   -1.9555 H         1 <0>         0.0682
     43 H11        -3.4068   -2.0375   -0.5853 H         1 <0>         0.4127
     44 H12        -7.3978   -4.3608   -5.9347 H         1 <0>         0.2118
     45 H13        -7.5206   -3.7681   -2.1922 H         1 <0>         0.1334
     46 H14       -10.8698   -7.1277   -3.3601 H         1 <0>         0.0631
     47 H15       -10.9029   -5.5236   -2.5894 H         1 <0>         0.0587
     48 H16       -12.2967   -5.6087   -4.5273 H         1 <0>         0.3853
     49 H17        -8.9343   -8.5212   -2.8060 H         1 <0>         0.3898
     50 H18        -5.7940   -7.2719   -3.4136 H         1 <0>         0.3921
     51 H19        -2.1085   -1.2226   -6.0953 H         1 <0>         0.4082
     52 H20        -3.3457   -1.9501   -6.9686 H         1 <0>         0.4198
     53 H21         3.8728   -1.1415    0.9923 H         1 <0>         0.0754
     54 H22         3.5899   -1.6017   -0.7007 H         1 <0>         0.0741
     55 H23         5.7964   -0.4228   -0.2853 H         1 <0>         0.0679
     56 H24         4.7593    0.3659   -1.5017 H         1 <0>         0.0657
     57 H25         4.7629    1.1379    1.4519 H         1 <0>         0.0652
     58 H26         5.7665    1.9544    0.2257 H         1 <0>         0.0679
     59 H27         3.8114    2.6187   -1.0342 H         1 <0>         0.0758
     60 H28         3.5333    3.0735    0.6612 H         1 <0>         0.0737
@<TRIPOS>BOND
     1    1    6 ar
     2    1    2 ar
     3    1   36 1
     4    2    3 ar
     5    2   37 1
     6    3   35 1
     7    3    4 ar
     8    4    5 ar
     9    4   32 1
    10    5    6 ar
    11    5   38 1
    12    6    7 1
    13    7    8 1
    14    7   39 1
    15    7   40 1
    16    8    9 1
    17    8   41 1
    18    8   42 1
    19    9   10 1
    20    9   43 1
    21   10   15 ar
    22   10   11 ar
    23   11   12 ar
    24   12   13 ar
    25   12   31 1
    26   13   18 1
    27   13   14 ar
    28   14   15 ar
    29   14   16 1
    30   16   17 1
    31   16   19 1
    32   17   18 2
    33   17   44 1
    34   19   26 1
    35   19   20 1
    36   19   45 1
    37   20   21 1
    38   20   22 1
    39   20   30 1
    40   22   23 1
    41   22   24 1
    42   22   29 1
    43   24   25 1
    44   24   26 1
    45   24   27 1
    46   27   28 1
    47   27   46 1
    48   27   47 1
    49   28   48 1
    50   29   49 1
    51   30   50 1
    52   31   51 1
    53   31   52 1
    54   32   33 1
    55   32   53 1
    56   32   54 1
    57   33   34 1
    58   33   55 1
    59   33   56 1
    60   34   35 1
    61   34   57 1
    62   34   58 1
    63   35   59 1
    64   35   60 1
@<TRIPOS>MOLECULE
CHEMBL256125
   67    71     0     0     0
SMALL
USER_CHARGES

@<TRIPOS>ATOM
      1 C1          8.3276   -1.9632   -0.0229 C.3       1 <0>        -0.0788
      2 C2          7.2456   -3.0122   -0.0325 C.2       1 <0>         0.0218
      3 C3          7.4442   -4.3460   -0.0478 C.2       1 <0>        -0.2241
      4 C4          6.1740   -4.9523   -0.0521 C.2       1 <0>        -0.1083
      5 C5          5.2590   -3.9452   -0.0390 C.2       1 <0>         0.0067
      6 O1          5.9255   -2.7740   -0.0213 O.3       1 <0>        -0.1517
      7 C6          3.7924   -4.1072   -0.0379 C.ar      1 <0>         0.4643
      8 N1          3.2761   -5.3312   -0.0451 N.ar      1 <0>        -0.5053
      9 C7          1.9604   -5.5132   -0.0444 C.ar      1 <0>         0.4398
     10 C8          1.1213   -4.4006   -0.0358 C.ar      1 <0>        -0.2599
     11 C9          1.6977   -3.1348   -0.0284 C.ar      1 <0>         0.4529
     12 N2          3.0215   -3.0261   -0.0242 N.ar      1 <0>        -0.5445
     13 N3          0.8947   -1.9926   -0.0198 N.pl3     1 <0>        -0.3331
     14 C10         1.2507   -0.7669    0.4467 C.2       1 <0>         0.1172
     15 C11         0.1939    0.0593    0.2742 C.2       1 <0>        -0.2609
     16 C12        -0.8398   -0.6788   -0.3144 C.2       1 <0>         0.1020
     17 N4         -0.4198   -1.9040   -0.4962 N.2       1 <0>        -0.2848
     18 C13        -2.2022   -0.1499   -0.6819 C.3       1 <0>        -0.0761
     19 C14         2.5818   -0.3957    1.0479 C.3       1 <0>        -0.0890
     20 N5          1.4270   -6.7978   -0.0524 N.am      1 <0>        -0.6501
     21 C15         2.2422   -7.8653   -0.1639 C.2       1 <0>         0.5065
     22 O2          3.4451   -7.7122   -0.1643 O.2       1 <0>        -0.4319
     23 C16         1.6587   -9.2492   -0.2879 C.3       1 <0>         0.0461
     24 O3          2.7164  -10.2045   -0.3918 O.3       1 <0>        -0.2882
     25 C17         2.3590  -11.5102   -0.5112 C.ar      1 <0>         0.1277
     26 C18         1.0175  -11.8642   -0.5339 C.ar      1 <0>        -0.2088
     27 C19         0.6568  -13.1919   -0.6559 C.ar      1 <0>        -0.0780
     28 C20         1.6313  -14.1681   -0.7553 C.ar      1 <0>        -0.1493
     29 C21         2.9685  -13.8180   -0.7325 C.ar      1 <0>        -0.0390
     30 C22         3.3345  -12.4908   -0.6164 C.ar      1 <0>        -0.1222
     31 C23         4.0279  -14.8844   -0.8406 C.3       1 <0>         0.0926
     32 N6          4.3617  -15.1014   -2.2546 N.3       1 <0>        -0.5315
     33 C24         3.2212  -15.6756   -2.9831 C.3       1 <0>         0.0133
     34 C25         3.5915  -15.8293   -4.4607 C.3       1 <0>         0.0630
     35 O4          4.7665  -16.6371   -4.5710 O.3       1 <0>        -0.3854
     36 C26         5.8970  -16.1070   -3.8737 C.3       1 <0>         0.0630
     37 C27         5.5501  -15.9561   -2.3902 C.3       1 <0>         0.0171
     38 H1          7.8730   -0.9726   -0.0058 H         1 <0>         0.0792
     39 H2          8.9509   -2.0922    0.8620 H         1 <0>         0.0913
     40 H3          8.9413   -2.0660   -0.9178 H         1 <0>         0.0912
     41 H4          8.3977   -4.8532   -0.0557 H         1 <0>         0.1575
     42 H5          5.9658   -6.0120   -0.0639 H         1 <0>         0.1667
     43 H6          0.0478   -4.5186   -0.0354 H         1 <0>         0.1626
     44 H7          0.1544    1.1044    0.5435 H         1 <0>         0.1595
     45 H8         -2.1808    0.2311   -1.7029 H         1 <0>         0.0835
     46 H9         -2.9355   -0.9532   -0.6092 H         1 <0>         0.0771
     47 H10        -2.4759    0.6547    0.0005 H         1 <0>         0.0841
     48 H11         3.2532   -0.0531    0.2605 H         1 <0>         0.0888
     49 H12         2.4411    0.4015    1.7778 H         1 <0>         0.0835
     50 H13         3.0138   -1.2670    1.5402 H         1 <0>         0.0786
     51 H14         0.4683   -6.9254    0.0222 H         1 <0>         0.4263
     52 H15         1.0554   -9.4695    0.5927 H         1 <0>         0.0996
     53 H16         1.0333   -9.3013   -1.1791 H         1 <0>         0.1002
     54 H17         0.2561  -11.1023   -0.4559 H         1 <0>         0.1275
     55 H18        -0.3871  -13.4680   -0.6733 H         1 <0>         0.1272
     56 H19         1.3473  -15.2057   -0.8506 H         1 <0>         0.1221
     57 H20         4.3792  -12.2173   -0.6031 H         1 <0>         0.1340
     58 H21         4.9201  -14.5662   -0.3013 H         1 <0>         0.0891
     59 H22         3.6542  -15.8128   -0.4089 H         1 <0>         0.0495
     60 H23         2.9771  -16.6524   -2.5655 H         1 <0>         0.0436
     61 H24         2.3599  -15.0140   -2.8906 H         1 <0>         0.0912
     62 H25         2.7698  -16.3073   -4.9940 H         1 <0>         0.0984
     63 H26         3.7834  -14.8468   -4.8919 H         1 <0>         0.0601
     64 H27         6.7428  -16.7859   -3.9825 H         1 <0>         0.0997
     65 H28         6.1560  -15.1326   -4.2878 H         1 <0>         0.0610
     66 H29         6.3889  -15.4993   -1.8649 H         1 <0>         0.0887
     67 H30         5.3433  -16.9374   -1.9631 H         1 <0>         0.0449
@<TRIPOS>BOND
     1    1    2 1
     2    1   38 1
     3    1   39 1
     4    1   40 1
     5    2    6 1
     6    2    3 2
     7    3    4 1
     8    3   41 1
     9    4    5 2
    10    4   42 1
    11    5    6 1
    12    5    7 1
    13    7   12 ar
    14    7    8 ar
    15    8    9 ar
    16    9   10 ar
    17    9   20 1
    18   10   11 ar
    19   10   43 1
    20   11   12 ar
    21   11   13 1
    22   13   17 1
    23   13   14 1
    24   14   15 2
    25   14   19 1
    26   15   16 1
    27   15   44 1
    28   16   17 2
    29   16   18 1
    30   18   45 1
    31   18   46 1
    32   18   47 1
    33   19   48 1
    34   19   49 1
    35   19   50 1
    36   20   21 am
    37   20   51 1
    38   21   22 2
    39   21   23 1
    40   23   24 1
    41   23   52 1
    42   23   53 1
    43   24   25 1
    44   25   30 ar
    45   25   26 ar
    46   26   27 ar
    47   26   54 1
    48   27   28 ar
    49   27   55 1
    50   28   29 ar
    51   28   56 1
    52   29   30 ar
    53   29   31 1
    54   30   57 1
    55   31   32 1
    56   31   58 1
    57   31   59 1
    58   32   37 1
    59   32   33 1
    60   33   34 1
    61   33   60 1
    62   33   61 1
    63   34   35 1
    64   34   62 1
    65   34   63 1
    66   35   36 1
    67   36   37 1
    68   36   64 1
    69   36   65 1
    70   37   66 1
    71   37   67 1
@<TRIPOS>MOLECULE
CHEMBL608005
   50    53     0     0     0
SMALL
USER_CHARGES

@<TRIPOS>ATOM
      1 C1         -0.0164    1.3590    0.0095 C.2       1 <0>         0.2860
      2 N1          1.2006    1.8206    0.0004 N.2       1 <0>        -0.4659
      3 C2          2.0754    0.7871   -0.0135 C.ar      1 <0>        -0.0986
      4 C3          3.4784    0.6816   -0.0279 C.ar      1 <0>         0.5127
      5 N2          4.0240   -0.5276   -0.0400 N.ar      1 <0>        -0.5739
      6 C4          3.2683   -1.6225   -0.0386 C.ar      1 <0>         0.4973
      7 N3          1.9438   -1.5670   -0.0257 N.ar      1 <0>        -0.5421
      8 C5          1.3171   -0.3971   -0.0127 C.ar      1 <0>         0.3124
      9 N4          0.0021   -0.0041    0.0020 N.pl3     1 <0>        -0.4620
     10 C6         -1.1668   -0.8871    0.0089 C.3       1 <0>         0.3134
     11 C7         -1.5287   -1.2882   -1.4374 C.3       1 <0>         0.0763
     12 H1         -1.1656   -2.2906   -1.6643 H         1 <0>         0.0991
     13 C8         -3.0811   -1.2558   -1.4098 C.3       1 <0>         0.0478
     14 H2         -3.4868   -2.1907   -1.0232 H         1 <0>         0.0937
     15 C9         -3.3334   -0.0875   -0.4237 C.3       1 <0>         0.0510
     16 H3         -3.2630    0.8680   -0.9433 H         1 <0>         0.0989
     17 O1         -2.2939   -0.1972    0.5615 O.3       1 <0>        -0.3457
     18 C10        -4.7077   -0.2340    0.2327 C.3       1 <0>         0.0780
     19 O2         -4.9705    0.9098    1.0480 O.3       1 <0>        -0.5628
     20 O3         -3.6132   -0.9631   -2.7033 O.3       1 <0>        -0.5424
     21 O4         -1.0127   -0.3390   -2.3726 O.3       1 <0>        -0.5347
     22 C11         3.9070   -2.9041   -0.0520 C.1       1 <0>        -0.1277
     23 C12         4.4307   -3.9548   -0.0630 C.1       1 <0>        -0.0852
     24 C13         5.0872   -5.2722   -0.0768 C.3       1 <0>        -0.0049
     25 C14         4.0237   -6.3721   -0.0724 C.3       1 <0>        -0.0900
     26 C15         3.2806   -6.4131   -1.4308 C.3       1 <0>        -0.1217
     27 C16         2.7398   -7.8636   -1.4810 C.3       1 <0>        -0.1264
     28 C17         3.8682   -8.7099   -0.8563 C.3       1 <0>        -0.1257
     29 C18         4.6845   -7.7616    0.0393 C.3       1 <0>        -0.1208
     30 N5          4.2724    1.8152   -0.0299 N.pl3     1 <0>        -0.8157
     31 H4         -0.9093    1.9664    0.0254 H         1 <0>         0.2180
     32 H5         -0.9533   -1.7785    0.5988 H         1 <0>         0.1369
     33 H6         -5.4727   -0.3132   -0.5397 H         1 <0>         0.0640
     34 H7         -4.7212   -1.1317    0.8509 H         1 <0>         0.0593
     35 H8         -5.8270    0.8849    1.4962 H         1 <0>         0.3859
     36 H9         -4.5793   -0.9327   -2.7335 H         1 <0>         0.3906
     37 H10        -1.2137   -0.5468   -3.2954 H         1 <0>         0.3941
     38 H11         5.7004   -5.3632   -0.9733 H         1 <0>         0.0960
     39 H12         5.7179   -5.3731    0.8065 H         1 <0>         0.0957
     40 H13         3.3198   -6.2176    0.7453 H         1 <0>         0.0810
     41 H14         2.4611   -5.6945   -1.4446 H         1 <0>         0.0684
     42 H15         3.9707   -6.2294   -2.2543 H         1 <0>         0.0686
     43 H16         1.8267   -7.9509   -0.8920 H         1 <0>         0.0651
     44 H17         2.5604   -8.1684   -2.5120 H         1 <0>         0.0646
     45 H18         3.4430   -9.5153   -0.2574 H         1 <0>         0.0626
     46 H19         4.5034   -9.1223   -1.6402 H         1 <0>         0.0634
     47 H20         5.7159   -7.7138   -0.3100 H         1 <0>         0.0676
     48 H21         4.6555   -8.1068    1.0728 H         1 <0>         0.0657
     49 H22         3.8626    2.6943   -0.0213 H         1 <0>         0.4207
     50 H23         5.2386    1.7306   -0.0398 H         1 <0>         0.4110
@<TRIPOS>BOND
     1    1    9 1
     2    1    2 2
     3    1   31 1
     4    2    3 1
     5    3    8 ar
     6    3    4 ar
     7    4    5 ar
     8    4   30 1
     9    5    6 ar
    10    6    7 ar
    11    6   22 1
    12    7    8 ar
    13    8    9 1
    14    9   10 1
    15   10   17 1
    16   10   11 1
    17   10   32 1
    18   11   12 1
    19   11   13 1
    20   11   21 1
    21   13   14 1
    22   13   15 1
    23   13   20 1
    24   15   16 1
    25   15   17 1
    26   15   18 1
    27   18   19 1
    28   18   33 1
    29   18   34 1
    30   19   35 1
    31   20   36 1
    32   21   37 1
    33   22   23 3
    34   23   24 1
    35   24   25 1
    36   24   38 1
    37   24   39 1
    38   25   29 1
    39   25   26 1
    40   25   40 1
    41   26   27 1
    42   26   41 1
    43   26   42 1
    44   27   28 1
    45   27   43 1
    46   27   44 1
    47   28   29 1
    48   28   45 1
    49   28   46 1
    50   29   47 1
    51   29   48 1
    52   30   49 1
    53   30   50 1
@<TRIPOS>MOLECULE
CHEMBL300624
   40    42     0     0     0
SMALL
USER_CHARGES

@<TRIPOS>ATOM
      1 C1          0.1509    0.9060   -1.8564 C.3       1 <0>        -0.1385
      2 C2          0.0325   -0.6191   -1.8240 C.3       1 <0>         0.2422
      3 C3          1.0328   -1.1869   -0.8151 C.3       1 <0>        -0.1756
      4 C4         -1.3336   -0.9968   -1.4263 C.1       1 <0>        -0.1192
      5 C5         -2.4230   -1.2980   -1.1091 C.1       1 <0>        -0.0967
      6 C6         -3.7519   -1.6654   -0.7223 C.ar      1 <0>         0.4988
      7 N1         -4.6364   -0.7044   -0.4688 N.ar      1 <0>        -0.5723
      8 C7         -5.8792   -0.9945   -0.1077 C.ar      1 <0>         0.5186
      9 C8         -6.2502   -2.3491    0.0041 C.ar      1 <0>        -0.0966
     10 C9         -5.2804   -3.3307   -0.2740 C.ar      1 <0>         0.3088
     11 N2         -4.0608   -2.9520   -0.6340 N.ar      1 <0>        -0.5370
     12 N3         -5.8999   -4.5424   -0.0907 N.pl3     1 <0>        -0.4607
     13 C10        -7.1941   -4.2837    0.2837 C.2       1 <0>         0.3093
     14 N4         -7.3871   -2.9881    0.3356 N.2       1 <0>        -0.4385
     15 C11        -8.2159   -5.3100    0.5826 C.ar      1 <0>         0.0046
     16 C12        -7.8330   -6.5535    1.0879 C.ar      1 <0>        -0.1165
     17 C13        -8.7901   -7.5076    1.3651 C.ar      1 <0>        -0.0851
     18 C14       -10.1281   -7.2351    1.1432 C.ar      1 <0>        -0.1360
     19 C15       -10.5161   -6.0031    0.6418 C.ar      1 <0>         0.1043
     20 C16        -9.5668   -5.0371    0.3661 C.ar      1 <0>        -0.1074
     21 F1        -11.8245   -5.7437    0.4275 F         1 <0>        -0.1318
     22 C17        -5.2923   -5.8643   -0.2627 C.3       1 <0>         0.0709
     23 N5         -6.7921    0.0120    0.1543 N.pl3     1 <0>        -0.8111
     24 O1          0.3137   -1.1464   -3.1220 O.3       1 <0>        -0.5453
     25 H1          1.1624    1.1857   -2.1509 H         1 <0>         0.0778
     26 H2         -0.5617    1.3106   -2.5752 H         1 <0>         0.0687
     27 H3         -0.0636    1.3082   -0.8663 H         1 <0>         0.0781
     28 H4          0.8183   -0.7847    0.1750 H         1 <0>         0.0746
     29 H5          0.9484   -2.2734   -0.7920 H         1 <0>         0.0645
     30 H6          2.0443   -0.9073   -1.1096 H         1 <0>         0.0796
     31 H7         -6.7890   -6.7687    1.2612 H         1 <0>         0.1354
     32 H8         -8.4941   -8.4698    1.7560 H         1 <0>         0.1432
     33 H9        -10.8733   -7.9858    1.3612 H         1 <0>         0.1430
     34 H10        -9.8696   -4.0752   -0.0205 H         1 <0>         0.1488
     35 H11        -4.9406   -6.2308    0.7017 H         1 <0>         0.0843
     36 H12        -6.0330   -6.5550   -0.6658 H         1 <0>         0.0953
     37 H13        -4.4512   -5.7906   -0.9521 H         1 <0>         0.0989
     38 H14        -6.5256    0.9413    0.0745 H         1 <0>         0.4135
     39 H15        -7.6984   -0.2118    0.4177 H         1 <0>         0.4218
     40 H16         0.2571   -2.1102   -3.1757 H         1 <0>         0.3835
@<TRIPOS>BOND
     1    1    2 1
     2    1   25 1
     3    1   26 1
     4    1   27 1
     5    2    3 1
     6    2    4 1
     7    2   24 1
     8    3   28 1
     9    3   29 1
    10    3   30 1
    11    4    5 3
    12    5    6 1
    13    6   11 ar
    14    6    7 ar
    15    7    8 ar
    16    8    9 ar
    17    8   23 1
    18    9   14 1
    19    9   10 ar
    20   10   11 ar
    21   10   12 1
    22   12   13 1
    23   12   22 1
    24   13   14 2
    25   13   15 1
    26   15   20 ar
    27   15   16 ar
    28   16   17 ar
    29   16   31 1
    30   17   18 ar
    31   17   32 1
    32   18   19 ar
    33   18   33 1
    34   19   20 ar
    35   19   21 1
    36   20   34 1
    37   22   35 1
    38   22   36 1
    39   22   37 1
    40   23   38 1
    41   23   39 1
    42   24   40 1
@<TRIPOS>MOLECULE
CHEMBL605257
   55    58     0     0     0
SMALL
USER_CHARGES

@<TRIPOS>ATOM
      1 C1         -0.0167    1.3781    0.0096 C.ar      1 <0>        -0.1255
      2 C2          1.1709    2.0855    0.0021 C.ar      1 <0>        -0.1183
      3 C3          2.3773    1.4107   -0.0130 C.ar      1 <0>        -0.1180
      4 C4          2.3960    0.0285   -0.0201 C.ar      1 <0>        -0.0823
      5 C5          1.2084   -0.6789   -0.0117 C.ar      1 <0>        -0.1180
      6 C6          0.0021   -0.0041    0.0020 C.ar      1 <0>        -0.1184
      7 C7          3.7112   -0.7071   -0.0376 C.3       1 <0>        -0.0805
      8 C8          4.1714   -0.9633    1.3989 C.3       1 <0>        -0.1079
      9 C9          5.5066   -1.7102    1.3812 C.3       1 <0>        -0.1213
     10 C10         5.9667   -1.9663    2.8177 C.3       1 <0>         0.0776
     11 O1          7.2138   -2.6639    2.8011 O.3       1 <0>        -0.2832
     12 C11         7.7633   -2.9702    4.0013 C.ar      1 <0>         0.5696
     13 N1          7.1227   -2.6171    5.1067 N.ar      1 <0>        -0.6307
     14 C12         7.6198   -2.8944    6.3070 C.ar      1 <0>         0.5423
     15 C13         8.8475   -3.5746    6.3849 C.ar      1 <0>        -0.1387
     16 C14         9.4892   -3.9282    5.1867 C.ar      1 <0>         0.3543
     17 N2          8.9161   -3.6150    4.0285 N.ar      1 <0>        -0.5535
     18 N3         10.6458   -4.5695    5.5515 N.pl3     1 <0>        -0.4690
     19 C15        10.6869   -4.5944    6.9148 C.2       1 <0>         0.2566
     20 N4          9.6312   -4.0104    7.4016 N.2       1 <0>        -0.4528
     21 C16        11.6518   -5.1261    4.6436 C.3       1 <0>         0.3156
     22 C17        11.3162   -6.5983    4.2937 C.3       1 <0>         0.0777
     23 H1         10.9038   -7.1192    5.1578 H         1 <0>         0.0908
     24 C18        12.7060   -7.1671    3.9174 C.3       1 <0>         0.0451
     25 H2         12.8272   -8.1738    4.3172 H         1 <0>         0.0878
     26 C19        13.7032   -6.1988    4.5828 C.3       1 <0>         0.0527
     27 H3         14.3081   -5.7080    3.8203 H         1 <0>         0.0990
     28 O2         12.9337   -5.2200    5.3011 O.3       1 <0>        -0.3481
     29 C20        14.6072   -6.9662    5.5495 C.3       1 <0>         0.0773
     30 O3         15.6021   -6.0841    6.0732 O.3       1 <0>        -0.5628
     31 O4         12.8780   -7.1696    2.4988 O.3       1 <0>        -0.5352
     32 O5         10.4188   -6.6669    3.1838 O.3       1 <0>        -0.5200
     33 N5          6.9441   -2.5214    7.4554 N.pl3     1 <0>        -0.8129
     34 H4         -0.9591    1.9053    0.0259 H         1 <0>         0.1206
     35 H5          1.1563    3.1654    0.0076 H         1 <0>         0.1213
     36 H6          3.3051    1.9634   -0.0196 H         1 <0>         0.1212
     37 H7          1.2231   -1.7588   -0.0176 H         1 <0>         0.1212
     38 H8         -0.9258   -0.5567    0.0082 H         1 <0>         0.1213
     39 H9          3.5884   -1.6586   -0.5549 H         1 <0>         0.0749
     40 H10         4.4573   -0.1052   -0.5563 H         1 <0>         0.0749
     41 H11         4.2941   -0.0118    1.9163 H         1 <0>         0.0684
     42 H12         3.4252   -1.5652    1.9176 H         1 <0>         0.0683
     43 H13         5.3838   -2.6617    0.8639 H         1 <0>         0.0763
     44 H14         6.2527   -1.1082    0.8625 H         1 <0>         0.0762
     45 H15         6.0895   -1.0148    3.3350 H         1 <0>         0.0706
     46 H16         5.2206   -2.5682    3.3364 H         1 <0>         0.0707
     47 H17        11.4788   -5.0340    7.5031 H         1 <0>         0.2233
     48 H18        11.7274   -4.5219    3.7395 H         1 <0>         0.1249
     49 H19        14.0081   -7.3651    6.3681 H         1 <0>         0.0591
     50 H20        15.0915   -7.7868    5.0203 H         1 <0>         0.0661
     51 H21        16.2121   -6.5041    6.6950 H         1 <0>         0.3859
     52 H22        13.7322   -7.5162    2.2067 H         1 <0>         0.3858
     53 H23        10.1790   -7.5678    2.9270 H         1 <0>         0.3869
     54 H24         6.0978   -2.0521    7.3893 H         1 <0>         0.4110
     55 H25         7.3168   -2.7293    8.3265 H         1 <0>         0.4216
@<TRIPOS>BOND
     1    1    6 ar
     2    1    2 ar
     3    1   34 1
     4    2    3 ar
     5    2   35 1
     6    3    4 ar
     7    3   36 1
     8    4    5 ar
     9    4    7 1
    10    5    6 ar
    11    5   37 1
    12    6   38 1
    13    7    8 1
    14    7   39 1
    15    7   40 1
    16    8    9 1
    17    8   41 1
    18    8   42 1
    19    9   10 1
    20    9   43 1
    21    9   44 1
    22   10   11 1
    23   10   45 1
    24   10   46 1
    25   11   12 1
    26   12   17 ar
    27   12   13 ar
    28   13   14 ar
    29   14   15 ar
    30   14   33 1
    31   15   20 1
    32   15   16 ar
    33   16   17 ar
    34   16   18 1
    35   18   19 1
    36   18   21 1
    37   19   20 2
    38   19   47 1
    39   21   28 1
    40   21   22 1
    41   21   48 1
    42   22   23 1
    43   22   24 1
    44   22   32 1
    45   24   25 1
    46   24   26 1
    47   24   31 1
    48   26   27 1
    49   26   28 1
    50   26   29 1
    51   29   30 1
    52   29   49 1
    53   29   50 1
    54   30   51 1
    55   31   52 1
    56   32   53 1
    57   33   54 1
    58   33   55 1
@<TRIPOS>MOLECULE
CHEMBL259164
   42    45     0     0     0
SMALL
USER_CHARGES

@<TRIPOS>ATOM
      1 C1         -0.0167    1.3781    0.0096 C.ar      1 <0>        -0.1062
      2 C2          1.1709    2.0855    0.0021 C.ar      1 <0>        -0.1212
      3 C3          2.3773    1.4107   -0.0130 C.ar      1 <0>        -0.0971
      4 C4          2.3960    0.0285   -0.0201 C.ar      1 <0>        -0.1177
      5 C5          1.2084   -0.6789   -0.0117 C.ar      1 <0>        -0.0971
      6 C6          0.0021   -0.0041    0.0020 C.ar      1 <0>        -0.1211
      7 C7          3.7112   -0.7071   -0.0376 C.3       1 <0>         0.1764
      8 N1          4.1518   -0.9524    1.3379 N.am      1 <0>        -0.7207
      9 C8          5.3108   -1.6005    1.5688 C.2       1 <0>         0.7079
     10 O1          5.9902   -1.9813    0.6361 O.2       1 <0>        -0.5094
     11 N2          5.7161   -1.8261    2.8342 N.am      1 <0>        -0.4704
     12 C9          5.0538   -1.4615    3.9773 C.2       1 <0>         0.2497
     13 N3          5.7311   -1.8377    5.0212 N.2       1 <0>        -0.4222
     14 C10         6.8660   -2.4648    4.6271 C.ar      1 <0>        -0.1005
     15 C11         6.8713   -2.4719    3.2199 C.ar      1 <0>         0.3645
     16 N4          7.8839   -3.0385    2.5798 N.ar      1 <0>        -0.5533
     17 C12         8.8804   -3.5954    3.2515 C.ar      1 <0>         0.5994
     18 N5          8.9174   -3.6155    4.5759 N.ar      1 <0>        -0.5536
     19 C13         7.9465   -3.0627    5.2993 C.ar      1 <0>         0.3390
     20 C14         7.9949   -3.0916    6.7795 C.ar      1 <0>        -0.0650
     21 C15         7.4828   -2.0249    7.5178 C.ar      1 <0>        -0.0646
     22 C16         7.5303   -2.0579    8.8964 C.ar      1 <0>        -0.1278
     23 C17         8.0845   -3.1462    9.5464 C.ar      1 <0>        -0.0963
     24 C18         8.5941   -4.2073    8.8196 C.ar      1 <0>        -0.1306
     25 C19         8.5475   -4.1883    7.4406 C.ar      1 <0>        -0.0683
     26 N6          9.9200   -4.1776    2.5448 N.pl3     1 <0>        -0.8099
     27 H1         -0.9591    1.9053    0.0259 H         1 <0>         0.1255
     28 H2          1.1563    3.1654    0.0076 H         1 <0>         0.1263
     29 H3          3.3051    1.9634   -0.0196 H         1 <0>         0.1255
     30 H4          1.2231   -1.7588   -0.0176 H         1 <0>         0.1254
     31 H5         -0.9258   -0.5567    0.0082 H         1 <0>         0.1263
     32 H6          3.5884   -1.6586   -0.5549 H         1 <0>         0.0842
     33 H7          4.4573   -0.1052   -0.5563 H         1 <0>         0.0842
     34 H8          3.6095   -0.6484    2.0824 H         1 <0>         0.4035
     35 H9          4.1091   -0.9391    4.0065 H         1 <0>         0.2299
     36 H10         7.0502   -1.1747    7.0114 H         1 <0>         0.1334
     37 H11         7.1343   -1.2324    9.4692 H         1 <0>         0.1289
     38 H12         8.1198   -3.1673   10.6256 H         1 <0>         0.1260
     39 H13         9.0258   -5.0539    9.3326 H         1 <0>         0.1281
     40 H14         8.9416   -5.0192    6.8744 H         1 <0>         0.1303
     41 H15         9.9097   -4.1726    1.5749 H         1 <0>         0.4190
     42 H16        10.6582   -4.5902    3.0199 H         1 <0>         0.4197
@<TRIPOS>BOND
     1    1    6 ar
     2    1    2 ar
     3    1   27 1
     4    2    3 ar
     5    2   28 1
     6    3    4 ar
     7    3   29 1
     8    4    5 ar
     9    4    7 1
    10    5    6 ar
    11    5   30 1
    12    6   31 1
    13    7    8 1
    14    7   32 1
    15    7   33 1
    16    8    9 am
    17    8   34 1
    18    9   10 2
    19    9   11 am
    20   11   15 1
    21   11   12 1
    22   12   13 2
    23   12   35 1
    24   13   14 1
    25   14   19 ar
    26   14   15 ar
    27   15   16 ar
    28   16   17 ar
    29   17   18 ar
    30   17   26 1
    31   18   19 ar
    32   19   20 1
    33   20   25 ar
    34   20   21 ar
    35   21   22 ar
    36   21   36 1
    37   22   23 ar
    38   22   37 1
    39   23   24 ar
    40   23   38 1
    41   24   25 ar
    42   24   39 1
    43   25   40 1
    44   26   41 1
    45   26   42 1
@<TRIPOS>MOLECULE
CHEMBL275636
   44    48     0     0     0
SMALL
USER_CHARGES

@<TRIPOS>ATOM
      1 C1         -0.0162    1.3433    0.0094 C.2       1 <0>        -0.2200
      2 C2          1.3252    1.7744   -0.0011 C.2       1 <0>        -0.1367
      3 C3          2.0962    0.6548   -0.0144 C.2       1 <0>         0.0417
      4 O1          1.2797   -0.4166   -0.0124 O.3       1 <0>        -0.1520
      5 C4          0.0021   -0.0041    0.0020 C.2       1 <0>        -0.0036
      6 C5          3.5736    0.6193   -0.0287 C.2       1 <0>         0.3512
      7 N1          4.3223   -0.4908   -0.0472 N.2       1 <0>        -0.5153
      8 C6          5.5979   -0.1638   -0.0558 C.2       1 <0>         0.4064
      9 C7          6.8494   -0.9218   -0.0750 C.2       1 <0>        -0.2662
     10 C8          7.1770   -2.2895   -0.0925 C.2       1 <0>         0.1319
     11 N2          8.4769   -2.4024   -0.1057 N.2       1 <0>        -0.2607
     12 N3          9.0564   -1.1275   -0.0976 N.pl3     1 <0>        -0.3548
     13 C9          8.0548   -0.2036   -0.0786 C.2       1 <0>         0.3699
     14 N4          8.0263    1.1363   -0.0638 N.2       1 <0>        -0.5631
     15 C10         6.9037    1.8122   -0.0459 C.2       1 <0>         0.6927
     16 N5          5.6820    1.2042   -0.0426 N.pl3     1 <0>        -0.3764
     17 N6          4.3634    1.6766   -0.0311 N.2       1 <0>        -0.2995
     18 N7          6.9590    3.1863   -0.0316 N.pl3     1 <0>        -0.8019
     19 C11        10.4923   -0.8370   -0.1068 C.3       1 <0>         0.1420
     20 C12        10.9797   -0.7205   -1.5524 C.3       1 <0>         0.0410
     21 N8         12.4195   -0.4292   -1.5616 N.3       1 <0>        -0.5324
     22 C13        12.6914    0.9017   -0.9995 C.3       1 <0>         0.0114
     23 C14        14.2036    1.1395   -0.9732 C.3       1 <0>         0.0631
     24 O2         14.7272    0.9931   -2.2960 O.3       1 <0>        -0.3845
     25 C15        14.4809   -0.2917   -2.8738 C.3       1 <0>         0.0635
     26 C16        12.9715   -0.5439   -2.9194 C.3       1 <0>         0.0190
     27 H1         -0.8931    1.9736    0.0252 H         1 <0>         0.1596
     28 H2          1.6736    2.7966    0.0006 H         1 <0>         0.1599
     29 H3         -0.8667   -0.6456    0.0076 H         1 <0>         0.2144
     30 H4          6.4721   -3.1077   -0.0946 H         1 <0>         0.2034
     31 H5          7.8178    3.6373   -0.0348 H         1 <0>         0.4302
     32 H6          6.1392    3.7046   -0.0183 H         1 <0>         0.4267
     33 H7         10.6764    0.1019    0.4155 H         1 <0>         0.0992
     34 H8         11.0292   -1.6426    0.3939 H         1 <0>         0.1119
     35 H9         10.7956   -1.6593   -2.0747 H         1 <0>         0.0880
     36 H10        10.4428    0.0852   -2.0531 H         1 <0>         0.0437
     37 H11        12.2141    1.6623   -1.6175 H         1 <0>         0.0473
     38 H12        12.2967    0.9559    0.0151 H         1 <0>         0.0885
     39 H13        14.4074    2.1470   -0.6105 H         1 <0>         0.1002
     40 H14        14.6750    0.4118   -0.3126 H         1 <0>         0.0621
     41 H15        14.8853   -0.3193   -3.8856 H         1 <0>         0.1007
     42 H16        14.9604   -1.0610   -2.2684 H         1 <0>         0.0626
     43 H17        12.7814   -1.5451   -3.3062 H         1 <0>         0.0896
     44 H18        12.4987    0.1935   -3.5680 H         1 <0>         0.0455
@<TRIPOS>BOND
     1    1    5 2
     2    1    2 1
     3    1   27 1
     4    2    3 2
     5    2   28 1
     6    3    4 1
     7    3    6 1
     8    4    5 1
     9    5   29 1
    10    6   17 2
    11    6    7 1
    12    7    8 2
    13    8   16 1
    14    8    9 1
    15    9   13 2
    16    9   10 1
    17   10   11 2
    18   10   30 1
    19   11   12 1
    20   12   13 1
    21   12   19 1
    22   13   14 1
    23   14   15 2
    24   15   16 1
    25   15   18 1
    26   16   17 1
    27   18   31 1
    28   18   32 1
    29   19   20 1
    30   19   33 1
    31   19   34 1
    32   20   21 1
    33   20   35 1
    34   20   36 1
    35   21   26 1
    36   21   22 1
    37   22   23 1
    38   22   37 1
    39   22   38 1
    40   23   24 1
    41   23   39 1
    42   23   40 1
    43   24   25 1
    44   25   26 1
    45   25   41 1
    46   25   42 1
    47   26   43 1
    48   26   44 1
@<TRIPOS>MOLECULE
CHEMBL505787
   36    39     0     0     0
SMALL
USER_CHARGES

@<TRIPOS>ATOM
      1 C1         -0.0184    1.5028    0.0103 C.3       1 <0>        -0.0841
      2 C2          0.0021   -0.0041    0.0020 C.2       1 <0>         0.0444
      3 C3          0.0052   -0.6805   -1.1812 C.2       1 <0>        -0.1912
      4 S1          0.0311   -2.3699   -0.5944 S.3       1 <0>         0.1270
      5 C4          0.0349   -1.9925    1.1534 C.2       1 <0>         0.0947
      6 N1          0.0223   -0.6660    1.1312 N.2       1 <0>        -0.4415
      7 C5          0.0528   -2.9094    2.3092 C.ar      1 <0>         0.4157
      8 C6          0.0768   -4.3093    2.1203 C.ar      1 <0>        -0.1561
      9 C7          0.0935   -5.1313    3.2631 C.ar      1 <0>         0.3671
     10 N2          0.0863   -4.5694    4.4669 N.ar      1 <0>        -0.5769
     11 C8          0.0636   -3.2530    4.5976 C.ar      1 <0>         0.6201
     12 N3          0.0523   -2.4364    3.5527 N.ar      1 <0>        -0.5286
     13 N4          0.0564   -2.7085    5.8705 N.pl3     1 <0>        -0.8007
     14 N5          0.1149   -6.4187    2.8016 N.pl3     1 <0>        -0.3804
     15 N6          0.1107   -6.3426    1.4005 N.2       1 <0>         0.0168
     16 N7          0.0884   -5.1069    1.0398 N.2       1 <0>        -0.1776
     17 C9          0.1383   -7.6390    3.6119 C.3       1 <0>         0.1797
     18 C10        -1.2742   -8.0823    3.8933 C.ar      1 <0>        -0.1640
     19 C11        -1.8971   -7.7027    5.0674 C.ar      1 <0>        -0.0617
     20 C12        -3.1927   -8.1092    5.3257 C.ar      1 <0>        -0.1350
     21 C13        -3.8672   -8.8957    4.4102 C.ar      1 <0>        -0.0744
     22 C14        -3.2467   -9.2760    3.2356 C.ar      1 <0>        -0.1594
     23 C15        -1.9506   -8.8651    2.9733 C.ar      1 <0>         0.1281
     24 F1         -1.3446   -9.2324    1.8231 F         1 <0>        -0.1270
     25 H1          1.0042    1.8801    0.0026 H         1 <0>         0.0762
     26 H2         -0.5455    1.8639   -0.8728 H         1 <0>         0.0762
     27 H3         -0.5286    1.8543    0.9071 H         1 <0>         0.0769
     28 H4         -0.0054   -0.3016   -2.1925 H         1 <0>         0.2061
     29 H5          0.0678   -3.2900    6.6468 H         1 <0>         0.4207
     30 H6          0.0399   -1.7455    5.9861 H         1 <0>         0.4235
     31 H7          0.6647   -8.4249    3.0702 H         1 <0>         0.1176
     32 H8          0.6511   -7.4403    4.5531 H         1 <0>         0.1186
     33 H9         -1.3711   -7.0887    5.7834 H         1 <0>         0.1382
     34 H10        -3.6784   -7.8124    6.2435 H         1 <0>         0.1339
     35 H11        -4.8792   -9.2133    4.6134 H         1 <0>         0.1367
     36 H12        -3.7737   -9.8907    2.5208 H         1 <0>         0.1403
@<TRIPOS>BOND
     1    1    2 1
     2    1   25 1
     3    1   26 1
     4    1   27 1
     5    2    6 1
     6    2    3 2
     7    3    4 1
     8    3   28 1
     9    4    5 1
    10    5    6 2
    11    5    7 1
    12    7   12 ar
    13    7    8 ar
    14    8   16 1
    15    8    9 ar
    16    9   10 ar
    17    9   14 1
    18   10   11 ar
    19   11   12 ar
    20   11   13 1
    21   13   29 1
    22   13   30 1
    23   14   15 1
    24   14   17 1
    25   15   16 2
    26   17   18 1
    27   17   31 1
    28   17   32 1
    29   18   23 ar
    30   18   19 ar
    31   19   20 ar
    32   19   33 1
    33   20   21 ar
    34   20   34 1
    35   21   22 ar
    36   21   35 1
    37   22   23 ar
    38   22   36 1
    39   23   24 1
@<TRIPOS>MOLECULE
CHEMBL369373
   53    57     0     0     0
SMALL
USER_CHARGES

@<TRIPOS>ATOM
      1 C1          0.2822    1.7960   -1.2755 C.3       1 <0>         0.0837
      2 N1          0.2411    0.3619   -0.9787 N.pl3     1 <0>        -0.3339
      3 C2          0.1891   -0.6353   -1.8864 C.2       1 <0>         0.1255
      4 C3          0.1646   -1.8075   -1.2110 C.2       1 <0>        -0.3119
      5 C4          0.2030   -1.5166    0.1576 C.2       1 <0>         0.1273
      6 N2          0.2550   -0.2161    0.2972 N.2       1 <0>        -0.2453
      7 Cl1         0.1917   -2.6794    1.4465 Cl        1 <0>         0.0229
      8 C5          0.1059   -3.1830   -1.8239 C.3       1 <0>         0.0715
      9 N3          1.4257   -3.8202   -1.7242 N.4       1 <0>        -0.3861
     10 C6          2.4028   -3.0718   -2.5433 C.3       1 <0>        -0.0072
     11 C7          3.3400   -4.1564   -3.1305 C.3       1 <0>        -0.1408
     12 C8          2.3453   -5.3151   -3.4045 C.3       1 <0>        -0.1429
     13 C9          1.3489   -5.2025   -2.2315 C.3       1 <0>         0.0071
     14 H1          1.6240   -5.9028   -1.4428 H         1 <0>         0.1531
     15 C10        -0.0694   -5.4985   -2.7231 C.3       1 <0>         0.1037
     16 N4         -0.1525   -6.8932   -3.1635 N.pl3     1 <0>        -0.6664
     17 C11        -1.3105   -7.3646   -3.7464 C.2       1 <0>         0.6651
     18 N5         -1.3749   -8.6400   -4.1386 N.pl3     1 <0>        -0.5983
     19 C12        -2.4711   -9.1177   -4.6995 C.cat     1 <0>         0.7704
     20 N6         -3.5452   -8.2953   -4.8775 N.pl3     1 <0>        -0.4016
     21 C13        -3.4691   -6.9885   -4.4717 C.2       1 <0>         0.5323
     22 N7         -2.3386   -6.5468   -3.9019 N.2       1 <0>        -0.4998
     23 N8         -4.6275   -6.4158   -4.7541 N.2       1 <0>        -0.4518
     24 C14        -5.4438   -7.3096   -5.3268 C.2       1 <0>         0.4190
     25 N9         -4.8227   -8.4701   -5.4211 N.2       1 <0>        -0.2814
     26 C15        -6.8237   -7.0390   -5.7813 C.2       1 <0>        -0.0162
     27 C16        -7.4730   -5.8476   -5.6949 C.2       1 <0>        -0.0824
     28 C17        -8.7557   -6.0438   -6.2437 C.2       1 <0>        -0.2229
     29 C18        -8.8254   -7.3318   -6.6338 C.2       1 <0>         0.0361
     30 O1         -7.6546   -7.9285   -6.3583 O.3       1 <0>        -0.1574
     31 N10        -2.5290  -10.4271   -5.0995 N.pl3     1 <0>        -0.7354
     32 H2          1.3191    2.1167   -1.3757 H         1 <0>         0.0964
     33 H3         -0.2496    1.9896   -2.2070 H         1 <0>         0.1070
     34 H4         -0.1923    2.3486   -0.4646 H         1 <0>         0.1079
     35 H5          0.1699   -0.5186   -2.9599 H         1 <0>         0.1970
     36 H6         -0.6300   -3.7864   -1.2925 H         1 <0>         0.1417
     37 H7         -0.1799   -3.1016   -2.8726 H         1 <0>         0.1453
     38 H8          1.8944   -2.5353   -3.3445 H         1 <0>         0.1352
     39 H9          2.9681   -2.3785   -1.9205 H         1 <0>         0.1381
     40 H10         3.8035   -3.8129   -4.0553 H         1 <0>         0.1237
     41 H11         4.0959   -4.4543   -2.4039 H         1 <0>         0.1043
     42 H12         1.8368   -5.1692   -4.3575 H         1 <0>         0.1051
     43 H13         2.8584   -6.2765   -3.3834 H         1 <0>         0.1174
     44 H14        -0.7776   -5.3308   -1.9116 H         1 <0>         0.1173
     45 H15        -0.3098   -4.8391   -3.5571 H         1 <0>         0.1204
     46 H16         0.6067   -7.4852   -3.0452 H         1 <0>         0.4342
     47 H17        -7.0813   -4.9286   -5.2846 H         1 <0>         0.1698
     48 H18        -9.5357   -5.3023   -6.3342 H         1 <0>         0.1709
     49 H19        -9.6796   -7.8045   -7.0957 H         1 <0>         0.2255
     50 H20        -1.7626  -11.0078   -4.9711 H         1 <0>         0.4505
     51 H21        -3.3363  -10.7733   -5.5109 H         1 <0>         0.4638
     52 H22        -0.6088   -9.2210   -4.0105 H         1 <0>         0.4614
     53 H23         1.7280   -3.8281   -0.7615 H         1 <0>         0.4310
@<TRIPOS>BOND
     1    1    2 1
     2    1   32 1
     3    1   33 1
     4    1   34 1
     5    2    6 1
     6    2    3 1
     7    3    4 2
     8    3   35 1
     9    4    5 1
    10    4    8 1
    11    5    6 2
    12    5    7 1
    13    8    9 1
    14    8   36 1
    15    8   37 1
    16    9   13 1
    17    9   10 1
    18    9   53 1
    19   10   11 1
    20   10   38 1
    21   10   39 1
    22   11   12 1
    23   11   40 1
    24   11   41 1
    25   12   13 1
    26   12   42 1
    27   12   43 1
    28   13   14 1
    29   13   15 1
    30   15   16 1
    31   15   44 1
    32   15   45 1
    33   16   17 1
    34   16   46 1
    35   17   22 2
    36   17   18 1
    37   18   19 2
    38   18   52 1
    39   19   20 1
    40   19   31 1
    41   20   25 1
    42   20   21 1
    43   21   22 1
    44   21   23 2
    45   23   24 1
    46   24   25 2
    47   24   26 1
    48   26   30 1
    49   26   27 2
    50   27   28 1
    51   27   47 1
    52   28   29 2
    53   28   48 1
    54   29   30 1
    55   29   49 1
    56   31   50 1
    57   31   51 1
@<TRIPOS>MOLECULE
CHEMBL469876
   52    57     0     0     0
SMALL
USER_CHARGES

@<TRIPOS>ATOM
      1 C1         -0.0173    1.4248    0.0099 C.3       1 <0>         0.0206
      2 O1          0.0021   -0.0041    0.0020 O.3       1 <0>        -0.3060
      3 C2         -1.2003   -0.6375    0.0101 C.ar      1 <0>         0.1611
      4 C3         -2.3748    0.1012    0.0195 C.ar      1 <0>        -0.1887
      5 C4         -3.5956   -0.5450    0.0272 C.ar      1 <0>        -0.0276
      6 C5         -3.6489   -1.9262    0.0255 C.ar      1 <0>        -0.1774
      7 C6         -2.4780   -2.6656    0.0162 C.ar      1 <0>        -0.0921
      8 C7         -1.2555   -2.0235    0.0032 C.ar      1 <0>        -0.1125
      9 C8         -2.8443   -4.1325    0.0173 C.3       1 <0>         0.0501
     10 N1         -4.2569   -4.1917    0.4565 N.4       1 <0>        -0.3833
     11 C9         -4.8157   -2.8879    0.0329 C.3       1 <0>         0.0461
     12 C10        -4.3370   -4.3369    1.9161 C.3       1 <0>        -0.0277
     13 C11        -5.7983   -4.5206    2.3308 C.3       1 <0>         0.1272
     14 N2         -5.8782   -4.6655    3.7865 N.pl3     1 <0>        -0.3739
     15 C12        -5.8080   -5.8379    4.4775 C.2       1 <0>         0.3752
     16 C13        -5.9277   -5.5084    5.8361 C.2       1 <0>        -0.2579
     17 C14        -6.0695   -4.1115    5.9169 C.2       1 <0>         0.1529
     18 N3         -6.0339   -3.6223    4.7077 N.2       1 <0>        -0.2677
     19 C15        -5.8845   -6.5966    6.8134 C.2       1 <0>         0.4007
     20 N4         -5.9629   -6.6602    8.1264 N.2       1 <0>        -0.5063
     21 C16        -5.8641   -7.9358    8.5217 C.2       1 <0>         0.3631
     22 N5         -5.7204   -8.7095    7.4622 N.2       1 <0>        -0.2939
     23 N6         -5.7295   -7.8731    6.3387 N.pl3     1 <0>        -0.3787
     24 C17        -5.6212   -8.0929    4.9962 C.2       1 <0>         0.7054
     25 N7         -5.6595   -7.1207    4.1185 N.2       1 <0>        -0.5791
     26 N8         -5.4665   -9.3838    4.5475 N.pl3     1 <0>        -0.7948
     27 C18        -5.9088   -8.4033    9.9230 C.2       1 <0>         0.0281
     28 C19        -5.8041   -9.6939   10.3371 C.2       1 <0>        -0.1277
     29 C20        -5.8977   -9.6780   11.7429 C.2       1 <0>        -0.2203
     30 C21        -6.0532   -8.3918   12.1136 C.2       1 <0>         0.0050
     31 O2         -6.0544   -7.6241   11.0120 O.3       1 <0>        -0.1522
     32 H1          1.0053    1.8021    0.0021 H         1 <0>         0.1128
     33 H2         -0.5445    1.7859   -0.8732 H         1 <0>         0.0643
     34 H3         -0.5275    1.7763    0.9067 H         1 <0>         0.0640
     35 H4         -2.3346    1.1804    0.0211 H         1 <0>         0.1477
     36 H5         -4.5098    0.0299    0.0348 H         1 <0>         0.1418
     37 H6         -0.3425   -2.6003   -0.0082 H         1 <0>         0.1461
     38 H7         -2.7443   -4.5463   -0.9861 H         1 <0>         0.1541
     39 H8         -2.2097   -4.6785    0.7154 H         1 <0>         0.1427
     40 H9         -5.5737   -2.5549    0.7419 H         1 <0>         0.1398
     41 H10        -5.2435   -2.9684   -0.9664 H         1 <0>         0.1497
     42 H11        -3.7590   -5.2072    2.2269 H         1 <0>         0.1387
     43 H12        -3.9336   -3.4436    2.3928 H         1 <0>         0.1409
     44 H13        -6.3763   -3.6504    2.0200 H         1 <0>         0.1202
     45 H14        -6.2017   -5.4140    1.8541 H         1 <0>         0.1193
     46 H15        -6.1842   -3.5400    6.8261 H         1 <0>         0.2092
     47 H16        -5.4361  -10.1173    5.1814 H         1 <0>         0.4312
     48 H17        -5.3877   -9.5606    3.5970 H         1 <0>         0.4312
     49 H18        -5.6747  -10.5635    9.7098 H         1 <0>         0.1610
     50 H19        -5.8535  -10.5345   12.3992 H         1 <0>         0.1623
     51 H20        -6.1558   -8.0370   13.1285 H         1 <0>         0.2172
     52 H21        -4.7389   -4.9496   -0.0032 H         1 <0>         0.4382
@<TRIPOS>BOND
     1    1    2 1
     2    1   32 1
     3    1   33 1
     4    1   34 1
     5    2    3 1
     6    3    8 ar
     7    3    4 ar
     8    4    5 ar
     9    4   35 1
    10    5    6 ar
    11    5   36 1
    12    6   11 1
    13    6    7 ar
    14    7    8 ar
    15    7    9 1
    16    8   37 1
    17    9   10 1
    18    9   38 1
    19    9   39 1
    20   10   11 1
    21   10   12 1
    22   10   52 1
    23   11   40 1
    24   11   41 1
    25   12   13 1
    26   12   42 1
    27   12   43 1
    28   13   14 1
    29   13   44 1
    30   13   45 1
    31   14   18 1
    32   14   15 1
    33   15   25 1
    34   15   16 2
    35   16   17 1
    36   16   19 1
    37   17   18 2
    38   17   46 1
    39   19   23 1
    40   19   20 2
    41   20   21 1
    42   21   22 2
    43   21   27 1
    44   22   23 1
    45   23   24 1
    46   24   25 2
    47   24   26 1
    48   26   47 1
    49   26   48 1
    50   27   31 1
    51   27   28 2
    52   28   29 1
    53   28   49 1
    54   29   30 2
    55   29   50 1
    56   30   31 1
    57   30   51 1
@<TRIPOS>MOLECULE
CHEMBL86605
   51    54     0     0     0
SMALL
USER_CHARGES

@<TRIPOS>ATOM
      1 C1         -0.0187    1.5258    0.0104 C.3       1 <0>        -0.1631
      2 C2          0.0021   -0.0041    0.0020 C.3       1 <0>         0.1544
      3 C3          0.7182   -0.4975   -1.2568 C.3       1 <0>        -0.0918
      4 C4          0.8473   -1.9981   -1.2057 C.ar      1 <0>        -0.0826
      5 C5          1.9579   -2.5768   -0.6205 C.ar      1 <0>        -0.1155
      6 C6          2.0763   -3.9532   -0.5737 C.ar      1 <0>        -0.1184
      7 C7          1.0839   -4.7510   -1.1116 C.ar      1 <0>        -0.1239
      8 C8         -0.0272   -4.1724   -1.6960 C.ar      1 <0>        -0.1161
      9 C9         -0.1477   -2.7959   -1.7390 C.ar      1 <0>        -0.1106
     10 N1         -1.3723   -0.5112    0.0124 N.pl3     1 <0>        -0.6856
     11 C10        -2.0462   -0.6591    1.2121 C.ar      1 <0>         0.5104
     12 C11        -3.3630   -1.1495    1.2414 C.ar      1 <0>        -0.1024
     13 C12        -3.9954   -1.2776    2.4893 C.ar      1 <0>         0.3084
     14 N2         -3.3315   -0.9338    3.5883 N.ar      1 <0>        -0.5654
     15 C13        -2.0986   -0.4792    3.5127 C.ar      1 <0>         0.3604
     16 N3         -1.4615   -0.3459    2.3635 N.ar      1 <0>        -0.5892
     17 N4         -5.2495   -1.7694    2.2292 N.pl3     1 <0>        -0.4636
     18 C14        -5.3550   -1.9261    0.8792 C.2       1 <0>         0.2793
     19 N5         -4.2472   -1.5619    0.3015 N.2       1 <0>        -0.4671
     20 C15        -6.2852   -2.0711    3.2205 C.3       1 <0>         0.3145
     21 C16        -6.0784   -3.4963    3.7767 C.3       1 <0>         0.0770
     22 H1         -5.5958   -3.4652    4.7536 H         1 <0>         0.0983
     23 C17        -7.5362   -4.0180    3.8968 C.3       1 <0>         0.0473
     24 H2         -7.9939   -3.6935    4.8313 H         1 <0>         0.0933
     25 C18        -8.1982   -3.3236    2.6801 C.3       1 <0>         0.0515
     26 H3         -8.0063   -3.8916    1.7698 H         1 <0>         0.0981
     27 O1         -7.5764   -2.0311    2.6017 O.3       1 <0>        -0.3466
     28 C19        -9.7044   -3.1778    2.9065 C.3       1 <0>         0.0780
     29 O2        -10.3134   -2.6431    1.7295 O.3       1 <0>        -0.5628
     30 O3         -7.5863   -5.4404    3.7692 O.3       1 <0>        -0.5427
     31 O4         -5.3220   -4.2938    2.8636 O.3       1 <0>        -0.5340
     32 H4          1.0039    1.9031    0.0027 H         1 <0>         0.0674
     33 H5         -0.5459    1.8868   -0.8726 H         1 <0>         0.0556
     34 H6         -0.5289    1.8773    0.9072 H         1 <0>         0.0644
     35 H7          0.5293   -0.3651    0.8851 H         1 <0>         0.0963
     36 H8          0.1430   -0.2121   -2.1375 H         1 <0>         0.0786
     37 H9          1.7103   -0.0491   -1.3098 H         1 <0>         0.0920
     38 H10         2.7333   -1.9534   -0.2002 H         1 <0>         0.1215
     39 H11         2.9444   -4.4053   -0.1171 H         1 <0>         0.1208
     40 H12         1.1767   -5.8264   -1.0757 H         1 <0>         0.1195
     41 H13        -0.8025   -4.7957   -2.1166 H         1 <0>         0.1202
     42 H14        -1.0175   -2.3439   -2.1923 H         1 <0>         0.1177
     43 H15        -1.8100   -0.7432   -0.8215 H         1 <0>         0.4143
     44 H16        -1.5876   -0.2084    4.4248 H         1 <0>         0.2012
     45 H17        -6.2290   -2.2977    0.3649 H         1 <0>         0.2138
     46 H18        -6.2418   -1.3457    4.0329 H         1 <0>         0.1356
     47 H19       -10.1349   -4.1547    3.1266 H         1 <0>         0.0637
     48 H20        -9.8822   -2.5050    3.7454 H         1 <0>         0.0592
     49 H21       -11.2703   -2.5236    1.8015 H         1 <0>         0.3857
     50 H22        -8.4771   -5.8103    3.8378 H         1 <0>         0.3903
     51 H23        -5.1653   -5.1982    3.1678 H         1 <0>         0.3932
@<TRIPOS>BOND
     1    1    2 1
     2    1   32 1
     3    1   33 1
     4    1   34 1
     5    2    3 1
     6    2   10 1
     7    2   35 1
     8    3    4 1
     9    3   36 1
    10    3   37 1
    11    4    9 ar
    12    4    5 ar
    13    5    6 ar
    14    5   38 1
    15    6    7 ar
    16    6   39 1
    17    7    8 ar
    18    7   40 1
    19    8    9 ar
    20    8   41 1
    21    9   42 1
    22   10   11 1
    23   10   43 1
    24   11   16 ar
    25   11   12 ar
    26   12   19 1
    27   12   13 ar
    28   13   14 ar
    29   13   17 1
    30   14   15 ar
    31   15   16 ar
    32   15   44 1
    33   17   18 1
    34   17   20 1
    35   18   19 2
    36   18   45 1
    37   20   27 1
    38   20   21 1
    39   20   46 1
    40   21   22 1
    41   21   23 1
    42   21   31 1
    43   23   24 1
    44   23   25 1
    45   23   30 1
    46   25   26 1
    47   25   27 1
    48   25   28 1
    49   28   29 1
    50   28   47 1
    51   28   48 1
    52   29   49 1
    53   30   50 1
    54   31   51 1
@<TRIPOS>MOLECULE
CHEMBL252171
   55    58     0     0     0
SMALL
USER_CHARGES

@<TRIPOS>ATOM
      1 C1         -0.0267    1.5052    0.0151 C.3       1 <0>        -0.0782
      2 C2         -0.0056   -0.0017    0.0058 C.2       1 <0>         0.1079
      3 C3         -0.0008   -0.8138   -1.1344 C.2       1 <0>        -0.2564
      4 C4          0.0197   -2.1036   -0.7279 C.2       1 <0>         0.1178
      5 N1          0.0275   -2.1063    0.6310 N.pl3     1 <0>        -0.3382
      6 N2          0.0170   -0.7732    1.0617 N.2       1 <0>        -0.2875
      7 C5          0.0480   -3.2358    1.4515 C.ar      1 <0>         0.4609
      8 C6          0.5563   -3.1581    2.7443 C.ar      1 <0>        -0.2595
      9 C7          0.5575   -4.3096    3.5284 C.ar      1 <0>         0.4330
     10 N3          0.0763   -5.4388    3.0203 N.ar      1 <0>        -0.5073
     11 C8         -0.4013   -5.4769    1.7816 C.ar      1 <0>         0.4621
     12 N4         -0.4223   -4.3964    1.0094 N.ar      1 <0>        -0.5426
     13 C9         -0.9273   -6.7498    1.2522 C.2       1 <0>         0.0104
     14 C10        -0.9826   -7.9322    1.9236 C.2       1 <0>        -0.1162
     15 C11        -1.5534   -8.8712    1.0442 C.2       1 <0>        -0.2281
     16 C12        -1.8163   -8.2240   -0.1094 C.2       1 <0>         0.0022
     17 O1         -1.4420   -6.9424    0.0217 O.3       1 <0>        -0.1524
     18 N5          1.0565   -4.2775    4.8264 N.am      1 <0>        -0.6509
     19 C13         0.9605   -5.3681    5.6124 C.2       1 <0>         0.5069
     20 O2          0.5235   -6.4050    5.1601 O.2       1 <0>        -0.4475
     21 C14         1.3961   -5.2991    7.0534 C.3       1 <0>         0.0377
     22 N6          1.1926   -6.6074    7.6897 N.3       1 <0>        -0.5232
     23 C15        -0.2378   -6.9335    7.7777 C.3       1 <0>         0.0172
     24 C16        -0.4038   -8.3259    8.3902 C.3       1 <0>         0.0007
     25 N7          0.2042   -8.3485    9.7272 N.4       1 <0>        -0.3894
     26 C17         1.6375   -8.0453    9.6203 C.3       1 <0>        -0.0013
     27 C18         1.8204   -6.6505    9.0180 C.3       1 <0>         0.0266
     28 C19         0.0288   -9.6802   10.3221 C.3       1 <0>        -0.0457
     29 C20         0.0308   -3.3179   -1.6203 C.3       1 <0>        -0.1095
     30 H1          0.9957    1.8829    0.0063 H         1 <0>         0.0856
     31 H2         -0.5551    1.8665   -0.8672 H         1 <0>         0.0861
     32 H3         -0.5360    1.8559    0.9127 H         1 <0>         0.0777
     33 H4         -0.0118   -0.4708   -2.1584 H         1 <0>         0.1617
     34 H5          0.9415   -2.2262    3.1312 H         1 <0>         0.1627
     35 H6         -0.6519   -8.1148    2.9353 H         1 <0>         0.1630
     36 H7         -1.7447   -9.9133    1.2536 H         1 <0>         0.1579
     37 H8         -2.2587   -8.6635   -0.9911 H         1 <0>         0.2140
     38 H9          1.4736   -3.4703    5.1659 H         1 <0>         0.4267
     39 H10         2.4518   -5.0321    7.1014 H         1 <0>         0.1241
     40 H11         0.8066   -4.5455    7.5756 H         1 <0>         0.0836
     41 H12        -0.7407   -6.1978    8.4053 H         1 <0>         0.0586
     42 H13        -0.6758   -6.9207    6.7796 H         1 <0>         0.1393
     43 H14        -1.4645   -8.5639    8.4695 H         1 <0>         0.1366
     44 H15         0.0875   -9.0631    7.7552 H         1 <0>         0.1405
     45 H16         2.0900   -8.0752   10.6115 H         1 <0>         0.1380
     46 H17         2.1183   -8.7839    8.9790 H         1 <0>         0.1393
     47 H18         2.8840   -6.4312    8.9248 H         1 <0>         0.1263
     48 H19         1.3515   -5.9101    9.6661 H         1 <0>         0.0639
     49 H20         0.5110  -10.4265    9.6909 H         1 <0>         0.1237
     50 H21         0.4799   -9.6971   11.3142 H         1 <0>         0.1243
     51 H22        -1.0347   -9.9049   10.4027 H         1 <0>         0.1245
     52 H23         1.0610   -3.5967   -1.8416 H         1 <0>         0.0792
     53 H24        -0.4688   -4.1446   -1.1153 H         1 <0>         0.1030
     54 H25        -0.4917   -3.0907   -2.5495 H         1 <0>         0.0888
     55 H26        -0.2428   -7.6580   10.3114 H         1 <0>         0.4218
@<TRIPOS>BOND
     1    1    2 1
     2    1   30 1
     3    1   31 1
     4    1   32 1
     5    2    6 2
     6    2    3 1
     7    3    4 2
     8    3   33 1
     9    4    5 1
    10    4   29 1
    11    5    6 1
    12    5    7 1
    13    7   12 ar
    14    7    8 ar
    15    8    9 ar
    16    8   34 1
    17    9   10 ar
    18    9   18 1
    19   10   11 ar
    20   11   12 ar
    21   11   13 1
    22   13   17 1
    23   13   14 2
    24   14   15 1
    25   14   35 1
    26   15   16 2
    27   15   36 1
    28   16   17 1
    29   16   37 1
    30   18   19 am
    31   18   38 1
    32   19   20 2
    33   19   21 1
    34   21   22 1
    35   21   39 1
    36   21   40 1
    37   22   27 1
    38   22   23 1
    39   23   24 1
    40   23   41 1
    41   23   42 1
    42   24   25 1
    43   24   43 1
    44   24   44 1
    45   25   26 1
    46   25   28 1
    47   25   55 1
    48   26   27 1
    49   26   45 1
    50   26   46 1
    51   27   47 1
    52   27   48 1
    53   28   49 1
    54   28   50 1
    55   28   51 1
    56   29   52 1
    57   29   53 1
    58   29   54 1
@<TRIPOS>MOLECULE
CHEMBL606105
   60    64     0     0     0
SMALL
USER_CHARGES

@<TRIPOS>ATOM
      1 C1         -0.6785    0.9376   -1.0637 C.ar      1 <0>        -0.1343
      2 C2          0.4200    1.7711   -0.9582 C.ar      1 <0>        -0.1002
      3 C3          1.6950    1.2541   -1.0781 C.ar      1 <0>        -0.1454
      4 C4          1.8733   -0.1047   -1.3046 C.ar      1 <0>         0.1427
      5 C5          0.7678   -0.9392   -1.4096 C.ar      1 <0>        -0.1186
      6 C6         -0.5045   -0.4156   -1.2892 C.ar      1 <0>        -0.0994
      7 N1          3.1624   -0.6311   -1.4270 N.pl3     1 <0>        -0.6238
      8 C7          3.4152   -1.9388   -1.0474 C.ar      1 <0>         0.5104
      9 C8          4.7202   -2.4623   -1.0993 C.ar      1 <0>        -0.0766
     10 C9          4.9203   -3.7965   -0.7022 C.ar      1 <0>         0.3180
     11 N2          3.8805   -4.5135   -0.2946 N.ar      1 <0>        -0.5541
     12 C10         2.6661   -3.9819   -0.2608 C.ar      1 <0>         0.4659
     13 N3          2.4329   -2.7227   -0.6221 N.ar      1 <0>        -0.5382
     14 N4          1.6183   -4.7526    0.1650 N.2       1 <0>        -0.1510
     15 N5          1.4368   -5.9276   -0.3354 N.2       1 <0>         0.1419
     16 N6          2.1851   -6.3393   -1.4460 N.am      1 <0>        -0.5929
     17 C11         2.0783   -7.6040   -1.8992 C.2       1 <0>         0.7317
     18 O1          2.7930   -7.9876   -2.8045 O.2       1 <0>        -0.5449
     19 N7          1.1790   -8.4435   -1.3487 N.am      1 <0>        -0.6683
     20 C12         1.1169   -9.7764   -1.7698 C.ar      1 <0>         0.1529
     21 C13         2.2867  -10.4923   -1.9882 C.ar      1 <0>        -0.1142
     22 C14         2.2221  -11.8079   -2.4034 C.ar      1 <0>        -0.1022
     23 C15         0.9943  -12.4123   -2.6019 C.ar      1 <0>        -0.1285
     24 C16        -0.1724  -11.7022   -2.3853 C.ar      1 <0>        -0.1013
     25 C17        -0.1146  -10.3880   -1.9646 C.ar      1 <0>        -0.1348
     26 N8          6.2633   -4.0380   -0.8516 N.pl3     1 <0>        -0.4570
     27 C18         6.8347   -2.8916   -1.3185 C.2       1 <0>         0.3005
     28 N9          5.9277   -1.9692   -1.4629 N.2       1 <0>        -0.4640
     29 C19         6.9555   -5.2962   -0.5616 C.3       1 <0>         0.3121
     30 C20         7.3326   -5.3538    0.9343 C.3       1 <0>         0.0766
     31 H1          6.6305   -5.9775    1.4876 H         1 <0>         0.0985
     32 C21         8.7405   -6.0081    0.8943 C.3       1 <0>         0.0485
     33 H2          8.6676   -7.0946    0.8459 H         1 <0>         0.0943
     34 C22         9.2978   -5.4263   -0.4292 C.3       1 <0>         0.0507
     35 H3          9.7009   -4.4273   -0.2633 H         1 <0>         0.1001
     36 O2          8.1702   -5.3678   -1.3173 O.3       1 <0>        -0.3433
     37 C23        10.3789   -6.3462   -1.0001 C.3       1 <0>         0.0779
     38 O3         10.9610   -5.7379   -2.1547 O.3       1 <0>        -0.5628
     39 O4          9.5312   -5.5975    2.0116 O.3       1 <0>        -0.5418
     40 O5          7.3934   -4.0405    1.4944 O.3       1 <0>        -0.5355
     41 H4         -1.6744    1.3437   -0.9654 H         1 <0>         0.1230
     42 H5          0.2806    2.8275   -0.7821 H         1 <0>         0.1263
     43 H6          2.5524    1.9057   -0.9963 H         1 <0>         0.1249
     44 H7          0.9030   -1.9961   -1.5860 H         1 <0>         0.1482
     45 H8         -1.3645   -1.0638   -1.3708 H         1 <0>         0.1258
     46 H9          3.8798   -0.0806   -1.7778 H         1 <0>         0.4312
     47 H10         2.7800   -5.7140   -1.8887 H         1 <0>         0.4158
     48 H11         0.5747   -8.1236   -0.6606 H         1 <0>         0.4197
     49 H12         3.2459  -10.0206   -1.8340 H         1 <0>         0.1270
     50 H13         3.1314  -12.3652   -2.5734 H         1 <0>         0.1265
     51 H14         0.9464  -13.4411   -2.9273 H         1 <0>         0.1252
     52 H15        -1.1297  -12.1770   -2.5416 H         1 <0>         0.1288
     53 H16        -1.0261   -9.8353   -1.7912 H         1 <0>         0.1290
     54 H17         7.8852   -2.7671   -1.5362 H         1 <0>         0.2232
     55 H18         6.3122   -6.1389   -0.8149 H         1 <0>         0.1367
     56 H19        11.1505   -6.5105   -0.2480 H         1 <0>         0.0649
     57 H20         9.9334   -7.3014   -1.2783 H         1 <0>         0.0598
     58 H21        11.6560   -6.2667   -2.5698 H         1 <0>         0.3868
     59 H22        10.4185   -5.9816    2.0279 H         1 <0>         0.3917
     60 H23         7.6267   -4.0235    2.4327 H         1 <0>         0.3961
@<TRIPOS>BOND
     1    1    6 ar
     2    1    2 ar
     3    1   41 1
     4    2    3 ar
     5    2   42 1
     6    3    4 ar
     7    3   43 1
     8    4    5 ar
     9    4    7 1
    10    5    6 ar
    11    5   44 1
    12    6   45 1
    13    7    8 1
    14    7   46 1
    15    8   13 ar
    16    8    9 ar
    17    9   28 1
    18    9   10 ar
    19   10   11 ar
    20   10   26 1
    21   11   12 ar
    22   12   13 ar
    23   12   14 1
    24   14   15 2
    25   15   16 1
    26   16   17 am
    27   16   47 1
    28   17   18 2
    29   17   19 am
    30   19   20 1
    31   19   48 1
    32   20   25 ar
    33   20   21 ar
    34   21   22 ar
    35   21   49 1
    36   22   23 ar
    37   22   50 1
    38   23   24 ar
    39   23   51 1
    40   24   25 ar
    41   24   52 1
    42   25   53 1
    43   26   27 1
    44   26   29 1
    45   27   28 2
    46   27   54 1
    47   29   36 1
    48   29   30 1
    49   29   55 1
    50   30   31 1
    51   30   32 1
    52   30   40 1
    53   32   33 1
    54   32   34 1
    55   32   39 1
    56   34   35 1
    57   34   36 1
    58   34   37 1
    59   37   38 1
    60   37   56 1
    61   37   57 1
    62   38   58 1
    63   39   59 1
    64   40   60 1
@<TRIPOS>MOLECULE
CHEMBL366472
   57    61     0     0     0
SMALL
USER_CHARGES

@<TRIPOS>ATOM
      1 C1         -0.0184    1.5028    0.0103 C.3       1 <0>        -0.1042
      2 C2          0.0021   -0.0041    0.0020 C.2       1 <0>         0.1162
      3 C3         -1.0767   -0.8104    0.0026 C.2       1 <0>        -0.2947
      4 C4         -0.6269   -2.1430   -0.0073 C.2       1 <0>         0.0507
      5 N1          0.6760   -2.1297   -0.0134 N.2       1 <0>        -0.2953
      6 O1          1.0981   -0.7779   -0.0131 O.3       1 <0>        -0.0433
      7 C5         -1.4995   -3.3716   -0.0097 C.3       1 <0>         0.0520
      8 N2         -1.6917   -3.8330   -1.3910 N.4       1 <0>        -0.3808
      9 C6         -2.4351   -2.8169   -2.1457 C.3       1 <0>        -0.0134
     10 C7         -3.7674   -2.5321   -1.4490 C.3       1 <0>        -0.1470
     11 C8         -4.5886   -3.8230   -1.3823 C.3       1 <0>        -0.1363
     12 C9         -3.7732   -4.8981   -0.6580 C.3       1 <0>        -0.1387
     13 C10        -2.4407   -5.0953   -1.3840 C.3       1 <0>         0.0068
     14 H1         -2.6297   -5.4109   -2.4100 H         1 <0>         0.1553
     15 C11        -1.6224   -6.1691   -0.6640 C.3       1 <0>         0.1054
     16 N3         -0.3014   -6.2767   -1.2882 N.pl3     1 <0>        -0.6029
     17 C12         0.8080   -5.4529   -0.8016 C.3       1 <0>         0.0534
     18 C13        -0.1036   -7.1476   -2.3267 C.2       1 <0>         0.6623
     19 N4          1.1429   -7.2404   -2.8973 N.pl3     1 <0>        -0.6576
     20 C14         1.4820   -8.4081   -3.5804 C.2       1 <0>         0.6265
     21 N5          0.4016   -9.0515   -4.1615 N.pl3     1 <0>        -0.4274
     22 C15        -0.8825   -8.7834   -3.7338 C.2       1 <0>         0.4974
     23 N6         -1.1154   -7.8844   -2.7543 N.2       1 <0>        -0.5307
     24 N7         -1.6928   -9.5313   -4.4378 N.2       1 <0>        -0.4826
     25 C16        -0.9830  -10.2691   -5.3109 C.2       1 <0>         0.3418
     26 N8          0.3034   -9.9971   -5.1685 N.2       1 <0>        -0.2723
     27 C17        -1.5515  -11.2323   -6.2766 C.2       1 <0>         0.0291
     28 C18        -2.8713  -11.5170   -6.4366 C.2       1 <0>        -0.1225
     29 C19        -2.9570  -12.4834   -7.4584 C.2       1 <0>        -0.2196
     30 C20        -1.6986  -12.7383   -7.8673 C.2       1 <0>         0.0000
     31 O2         -0.8526  -11.9765   -7.1553 O.3       1 <0>        -0.1601
     32 N9          2.7035   -8.8528   -3.6649 N.2       1 <0>        -0.6644
     33 H2          1.0042    1.8801    0.0026 H         1 <0>         0.0956
     34 H3         -0.5455    1.8639   -0.8728 H         1 <0>         0.1079
     35 H4         -0.5286    1.8543    0.9071 H         1 <0>         0.1094
     36 H5         -2.1079   -0.4896    0.0097 H         1 <0>         0.1722
     37 H6         -1.0205   -4.1586    0.5729 H         1 <0>         0.1505
     38 H7         -2.4670   -3.1310    0.4310 H         1 <0>         0.1690
     39 H8         -1.8481   -1.8998   -2.1951 H         1 <0>         0.1294
     40 H9         -2.6242   -3.1811   -3.1555 H         1 <0>         0.1359
     41 H10        -3.5795   -2.1676   -0.4391 H         1 <0>         0.0888
     42 H11        -4.3187   -1.7788   -2.0119 H         1 <0>         0.1176
     43 H12        -5.5141   -3.6384   -0.8369 H         1 <0>         0.1016
     44 H13        -4.8204   -4.1602   -2.3925 H         1 <0>         0.0881
     45 H14        -3.5854   -4.5827    0.3683 H         1 <0>         0.0916
     46 H15        -4.3286   -5.8360   -0.6554 H         1 <0>         0.1243
     47 H16        -1.5075   -5.8958    0.3849 H         1 <0>         0.1153
     48 H17        -2.1373   -7.1271   -0.7356 H         1 <0>         0.1512
     49 H18         1.3385   -5.9869   -0.0132 H         1 <0>         0.1000
     50 H19         1.4930   -5.2440   -1.6233 H         1 <0>         0.0893
     51 H20         0.4179   -4.5150   -0.4063 H         1 <0>         0.0776
     52 H21        -3.6948  -11.0861   -5.8865 H         1 <0>         0.1629
     53 H22        -3.8605  -12.9348   -7.8411 H         1 <0>         0.1616
     54 H23        -1.4175  -13.4360   -8.6423 H         1 <0>         0.2157
     55 H24         2.8892   -9.6709   -4.1518 H         1 <0>         0.3847
     56 H25         1.7747   -6.5078   -2.8266 H         1 <0>         0.4378
     57 H26        -0.7921   -3.9792   -1.8240 H         1 <0>         0.4190
@<TRIPOS>BOND
     1    1    2 1
     2    1   33 1
     3    1   34 1
     4    1   35 1
     5    2    6 1
     6    2    3 2
     7    3    4 1
     8    3   36 1
     9    4    5 2
    10    4    7 1
    11    5    6 1
    12    7    8 1
    13    7   37 1
    14    7   38 1
    15    8   13 1
    16    8    9 1
    17    8   57 1
    18    9   10 1
    19    9   39 1
    20    9   40 1
    21   10   11 1
    22   10   41 1
    23   10   42 1
    24   11   12 1
    25   11   43 1
    26   11   44 1
    27   12   13 1
    28   12   45 1
    29   12   46 1
    30   13   14 1
    31   13   15 1
    32   15   16 1
    33   15   47 1
    34   15   48 1
    35   16   17 1
    36   16   18 1
    37   17   49 1
    38   17   50 1
    39   17   51 1
    40   18   23 2
    41   18   19 1
    42   19   20 1
    43   19   56 1
    44   20   21 1
    45   20   32 2
    46   21   26 1
    47   21   22 1
    48   22   23 1
    49   22   24 2
    50   24   25 1
    51   25   26 2
    52   25   27 1
    53   27   31 1
    54   27   28 2
    55   28   29 1
    56   28   52 1
    57   29   30 2
    58   29   53 1
    59   30   31 1
    60   30   54 1
    61   32   55 1
@<TRIPOS>MOLECULE
CHEMBL480556
   64    68     0     0     0
SMALL
USER_CHARGES

@<TRIPOS>ATOM
      1 C1         -2.2237    1.2650    1.5138 C.3       1 <0>         0.0303
      2 O1         -1.8300   -0.0695    1.8395 O.3       1 <0>        -0.3846
      3 C2         -0.4159   -0.2511    1.9364 C.3       1 <0>         0.0619
      4 C3         -0.1117   -1.7089    2.2873 C.3       1 <0>         0.0632
      5 O2         -0.5287   -2.5543    1.2134 O.3       1 <0>        -0.3106
      6 C4         -0.3284   -3.8908    1.3662 C.ar      1 <0>         0.0728
      7 C5          0.2523   -4.3762    2.5285 C.ar      1 <0>        -0.1583
      8 C6          0.4561   -5.7332    2.6845 C.ar      1 <0>        -0.1608
      9 C7          0.0796   -6.6118    1.6772 C.ar      1 <0>         0.1876
     10 C8         -0.5017   -6.1250    0.5139 C.ar      1 <0>        -0.1596
     11 C9         -0.7100   -4.7681    0.3619 C.ar      1 <0>        -0.0995
     12 N1          0.2862   -7.9869    1.8342 N.pl3     1 <0>        -0.6329
     13 C10        -0.2111   -8.9440    0.8343 C.3       1 <0>         0.1275
     14 C11         0.9428   -9.8668    0.4278 C.3       1 <0>         0.0409
     15 N2          1.5277  -10.4733    1.6311 N.3       1 <0>        -0.5303
     16 C12         2.1123   -9.4531    2.5117 C.3       1 <0>         0.0356
     17 C13         1.0116   -8.5129    3.0005 C.3       1 <0>         0.1294
     18 C14         2.5223  -11.4944    1.2756 C.3       1 <0>         0.0526
     19 C15         2.9247  -12.2727    2.5298 C.3       1 <0>         0.0714
     20 O3          1.7967  -12.9989    3.0222 O.3       1 <0>        -0.2664
     21 C16         1.9851  -13.7466    4.1376 C.2       1 <0>         0.4017
     22 C17         0.9381  -14.4760    4.6607 C.2       1 <0>        -0.2598
     23 C18         1.1663  -15.2414    5.8180 C.2       1 <0>         0.3759
     24 N3          0.4038  -16.0327    6.5567 N.2       1 <0>        -0.5286
     25 C19         1.1229  -16.5294    7.5694 C.2       1 <0>         0.3595
     26 N4          2.3574  -16.0662    7.4983 N.2       1 <0>        -0.3265
     27 N5          2.4191  -15.2299    6.3765 N.pl3     1 <0>        -0.3726
     28 C20         3.4081  -14.4872    5.8084 C.2       1 <0>         0.6826
     29 N6          3.1867  -13.7785    4.7232 N.2       1 <0>        -0.6023
     30 N7          4.6604  -14.4821    6.3755 N.pl3     1 <0>        -0.8032
     31 C21         0.6148  -17.4518    8.6064 C.2       1 <0>         0.0362
     32 C22        -0.6511  -17.9402    8.6886 C.2       1 <0>        -0.1260
     33 C23        -0.6912  -18.7751    9.8229 C.2       1 <0>        -0.2190
     34 C24         0.5396  -18.7553   10.3713 C.2       1 <0>        -0.0081
     35 O4          1.3273  -17.9591    9.6308 O.3       1 <0>        -0.1609
     36 H1         -3.3110    1.3199    1.4591 H         1 <0>         0.0880
     37 H2         -1.8637    1.9481    2.2832 H         1 <0>         0.0415
     38 H3         -1.7968    1.5449    0.5508 H         1 <0>         0.0429
     39 H4          0.0485   -0.0026    0.9821 H         1 <0>         0.0611
     40 H5         -0.0184    0.4005    2.7145 H         1 <0>         0.0706
     41 H6          0.9597   -1.8278    2.4484 H         1 <0>         0.0749
     42 H7         -0.6483   -1.9835    3.1954 H         1 <0>         0.0690
     43 H8          0.5454   -3.6927    3.3117 H         1 <0>         0.1250
     44 H9          0.9086   -6.1110    3.5895 H         1 <0>         0.1237
     45 H10        -0.7948   -6.8076   -0.2700 H         1 <0>         0.1292
     46 H11        -1.1664   -4.3898   -0.5408 H         1 <0>         0.1296
     47 H12        -1.0192   -9.5358    1.2641 H         1 <0>         0.0711
     48 H13        -0.5739   -8.4043   -0.0404 H         1 <0>         0.0863
     49 H14         0.5670  -10.6513   -0.2291 H         1 <0>         0.0878
     50 H15         1.7045   -9.2882   -0.0949 H         1 <0>         0.0391
     51 H16         2.5846   -9.9377    3.3662 H         1 <0>         0.0847
     52 H17         2.8576   -8.8803    1.9600 H         1 <0>         0.0391
     53 H18         1.4568   -7.6884    3.5573 H         1 <0>         0.0835
     54 H19         0.3233   -9.0625    3.6426 H         1 <0>         0.0691
     55 H20         2.0938  -12.1799    0.5444 H         1 <0>         0.0915
     56 H21         3.4019  -11.0119    0.8495 H         1 <0>         0.0611
     57 H22         3.7260  -12.9694    2.2836 H         1 <0>         0.0765
     58 H23         3.2705  -11.5767    3.2941 H         1 <0>         0.0726
     59 H24        -0.0350  -14.4594    4.1924 H         1 <0>         0.1708
     60 H25         4.8334  -15.0050    7.1740 H         1 <0>         0.4266
     61 H26         5.3710  -13.9556    5.9772 H         1 <0>         0.4294
     62 H27        -1.4684  -17.7288    8.0150 H         1 <0>         0.1636
     63 H28        -1.5466  -19.3262   10.1847 H         1 <0>         0.1595
     64 H29         0.8430  -19.2933   11.2572 H         1 <0>         0.2131
@<TRIPOS>BOND
     1    1    2 1
     2    1   36 1
     3    1   37 1
     4    1   38 1
     5    2    3 1
     6    3    4 1
     7    3   39 1
     8    3   40 1
     9    4    5 1
    10    4   41 1
    11    4   42 1
    12    5    6 1
    13    6   11 ar
    14    6    7 ar
    15    7    8 ar
    16    7   43 1
    17    8    9 ar
    18    8   44 1
    19    9   10 ar
    20    9   12 1
    21   10   11 ar
    22   10   45 1
    23   11   46 1
    24   12   17 1
    25   12   13 1
    26   13   14 1
    27   13   47 1
    28   13   48 1
    29   14   15 1
    30   14   49 1
    31   14   50 1
    32   15   16 1
    33   15   18 1
    34   16   17 1
    35   16   51 1
    36   16   52 1
    37   17   53 1
    38   17   54 1
    39   18   19 1
    40   18   55 1
    41   18   56 1
    42   19   20 1
    43   19   57 1
    44   19   58 1
    45   20   21 1
    46   21   29 1
    47   21   22 2
    48   22   23 1
    49   22   59 1
    50   23   27 1
    51   23   24 2
    52   24   25 1
    53   25   26 2
    54   25   31 1
    55   26   27 1
    56   27   28 1
    57   28   29 2
    58   28   30 1
    59   30   60 1
    60   30   61 1
    61   31   35 1
    62   31   32 2
    63   32   33 1
    64   32   62 1
    65   33   34 2
    66   33   63 1
    67   34   35 1
    68   34   64 1
@<TRIPOS>MOLECULE
CHEMBL480542
   56    60     0     0     0
SMALL
USER_CHARGES

@<TRIPOS>ATOM
      1 C1         -0.0178    1.4608    0.0101 C.3       1 <0>         0.0875
      2 N1          0.0021   -0.0041    0.0020 N.pl3     1 <0>        -0.5897
      3 C2          0.0241   -0.7433    1.2666 C.3       1 <0>         0.1273
      4 C3         -1.4105   -1.0203    1.7205 C.3       1 <0>         0.0416
      5 N2         -1.3884   -1.7615    2.9886 N.3       1 <0>        -0.5305
      6 C4         -0.8074   -3.0985    2.8068 C.3       1 <0>         0.0378
      7 C5         -0.6355   -3.7674    4.1748 C.3       1 <0>         0.1495
      8 N3         -1.9295   -3.7413    4.8735 N.pl3     1 <0>        -0.6755
      9 C6         -2.6395   -2.4573    4.9755 C.3       1 <0>         0.1504
     10 C7         -2.7325   -1.8400    3.5761 C.3       1 <0>         0.0412
     11 C8         -2.4707   -4.9076    5.4272 C.ar      1 <0>         0.1288
     12 C9         -2.1802   -5.2538    6.7395 C.ar      1 <0>        -0.0663
     13 C10        -2.7152   -6.4053    7.2843 C.ar      1 <0>        -0.1568
     14 C11        -3.5407   -7.2149    6.5227 C.ar      1 <0>         0.1272
     15 C12        -3.8325   -6.8732    5.2130 C.ar      1 <0>        -0.1897
     16 C13        -3.3048   -5.7182    4.6652 C.ar      1 <0>         0.1204
     17 F1         -3.5945   -5.3811    3.3894 F         1 <0>        -0.1269
     18 F2         -4.0619   -8.3405    7.0581 F         1 <0>        -0.1303
     19 C14         0.0000   -0.6913   -1.2033 C.2       1 <0>         0.4759
     20 C15        -0.0151    0.0079   -2.3950 C.2       1 <0>        -0.3169
     21 C16        -0.0168   -0.7184   -3.5977 C.2       1 <0>         0.3838
     22 N4         -0.0296   -0.3719   -4.8761 N.2       1 <0>        -0.5410
     23 C17        -0.0249   -1.4713   -5.6379 C.2       1 <0>         0.3586
     24 N5         -0.0090   -2.5406   -4.8638 N.2       1 <0>        -0.3309
     25 N6         -0.0034   -2.0891   -3.5380 N.pl3     1 <0>        -0.3780
     26 C18         0.0112   -2.7159   -2.3298 C.2       1 <0>         0.6832
     27 N7          0.0182   -2.0297   -1.2085 N.2       1 <0>        -0.5877
     28 N8          0.0246   -4.0897   -2.2814 N.pl3     1 <0>        -0.8061
     29 C19        -0.0362   -1.4867   -7.1161 C.2       1 <0>         0.0123
     30 C20        -0.0471   -0.4051   -7.9365 C.2       1 <0>         0.0422
     31 N9         -0.0541   -0.8563   -9.1994 N.2       1 <0>        -0.4890
     32 C21        -0.0480   -2.1600   -9.1822 C.2       1 <0>         0.1990
     33 O1         -0.0318   -2.5801   -7.9103 O.3       1 <0>        -0.1884
     34 H1          1.0048    1.8381    0.0023 H         1 <0>         0.0639
     35 H2         -0.5450    1.8219   -0.8730 H         1 <0>         0.0792
     36 H3         -0.5280    1.8123    0.9069 H         1 <0>         0.0794
     37 H4          0.5496   -1.6879    1.1262 H         1 <0>         0.0890
     38 H5          0.5371   -0.1514    2.0246 H         1 <0>         0.0881
     39 H6         -1.9359   -0.0757    1.8610 H         1 <0>         0.0747
     40 H7         -1.9235   -1.6122    0.9626 H         1 <0>         0.0385
     41 H8         -1.4708   -3.7022    2.1875 H         1 <0>         0.0385
     42 H9          0.1641   -3.0098    2.3206 H         1 <0>         0.0848
     43 H10        -0.3131   -4.7998    4.0396 H         1 <0>         0.0715
     44 H11         0.1067   -3.2224    4.7581 H         1 <0>         0.0636
     45 H12        -3.6420   -2.6236    5.3697 H         1 <0>         0.0720
     46 H13        -2.0900   -1.7865    5.6359 H         1 <0>         0.0642
     47 H14        -3.1572   -0.8387    3.6477 H         1 <0>         0.0814
     48 H15        -3.3691   -2.4612    2.9460 H         1 <0>         0.0376
     49 H16        -1.5358   -4.6235    7.3345 H         1 <0>         0.1448
     50 H17        -2.4889   -6.6744    8.3055 H         1 <0>         0.1447
     51 H18        -4.4760   -7.5066    4.6204 H         1 <0>         0.1479
     52 H19        -0.0257    1.0879   -2.4018 H         1 <0>         0.1612
     53 H20         0.0236   -4.6040   -3.1038 H         1 <0>         0.4253
     54 H21         0.0350   -4.5448   -1.4248 H         1 <0>         0.4281
     55 H22        -0.0496    0.6300   -7.6283 H         1 <0>         0.1992
     56 H23        -0.0513   -2.7984  -10.0533 H         1 <0>         0.2593
@<TRIPOS>BOND
     1    1    2 1
     2    1   34 1
     3    1   35 1
     4    1   36 1
     5    2    3 1
     6    2   19 1
     7    3    4 1
     8    3   37 1
     9    3   38 1
    10    4    5 1
    11    4   39 1
    12    4   40 1
    13    5   10 1
    14    5    6 1
    15    6    7 1
    16    6   41 1
    17    6   42 1
    18    7    8 1
    19    7   43 1
    20    7   44 1
    21    8    9 1
    22    8   11 1
    23    9   10 1
    24    9   45 1
    25    9   46 1
    26   10   47 1
    27   10   48 1
    28   11   16 ar
    29   11   12 ar
    30   12   13 ar
    31   12   49 1
    32   13   14 ar
    33   13   50 1
    34   14   15 ar
    35   14   18 1
    36   15   16 ar
    37   15   51 1
    38   16   17 1
    39   19   27 1
    40   19   20 2
    41   20   21 1
    42   20   52 1
    43   21   25 1
    44   21   22 2
    45   22   23 1
    46   23   24 2
    47   23   29 1
    48   24   25 1
    49   25   26 1
    50   26   27 2
    51   26   28 1
    52   28   53 1
    53   28   54 1
    54   29   33 1
    55   29   30 2
    56   30   31 1
    57   30   55 1
    58   31   32 2
    59   32   33 1
    60   32   56 1
@<TRIPOS>MOLECULE
CHEMBL611527
   51    54     0     0     0
SMALL
USER_CHARGES

@<TRIPOS>ATOM
      1 C1         -0.0164    1.3590    0.0095 C.2       1 <0>         0.2877
      2 N1          1.2006    1.8206    0.0004 N.2       1 <0>        -0.4657
      3 C2          2.0754    0.7871   -0.0135 C.ar      1 <0>        -0.0957
      4 C3          3.4784    0.6816   -0.0279 C.ar      1 <0>         0.5131
      5 N2          4.0240   -0.5276   -0.0400 N.ar      1 <0>        -0.5721
      6 C4          3.2683   -1.6225   -0.0386 C.ar      1 <0>         0.4915
      7 N3          1.9438   -1.5670   -0.0257 N.ar      1 <0>        -0.5395
      8 C5          1.3171   -0.3971   -0.0127 C.ar      1 <0>         0.3115
      9 N4          0.0021   -0.0041    0.0020 N.pl3     1 <0>        -0.4614
     10 C6         -1.1668   -0.8871    0.0089 C.3       1 <0>         0.3132
     11 C7         -1.5287   -1.2882   -1.4374 C.3       1 <0>         0.0763
     12 H1         -1.1656   -2.2906   -1.6643 H         1 <0>         0.0990
     13 C8         -3.0811   -1.2558   -1.4098 C.3       1 <0>         0.0479
     14 H2         -3.4868   -2.1907   -1.0232 H         1 <0>         0.0938
     15 C9         -3.3334   -0.0875   -0.4237 C.3       1 <0>         0.0509
     16 H3         -3.2630    0.8680   -0.9433 H         1 <0>         0.0991
     17 O1         -2.2939   -0.1972    0.5615 O.3       1 <0>        -0.3456
     18 C10        -4.7077   -0.2340    0.2327 C.3       1 <0>         0.0780
     19 O2         -4.9705    0.9098    1.0480 O.3       1 <0>        -0.5629
     20 O3         -3.6132   -0.9631   -2.7033 O.3       1 <0>        -0.5423
     21 O4         -1.0127   -0.3390   -2.3726 O.3       1 <0>        -0.5349
     22 C11         3.9070   -2.9041   -0.0520 C.1       1 <0>        -0.0966
     23 C12         4.4307   -3.9548   -0.0630 C.1       1 <0>        -0.1166
     24 C13         5.0872   -5.2722   -0.0768 C.3       1 <0>         0.2492
     25 C14         5.9479   -5.4000   -1.3353 C.3       1 <0>        -0.1391
     26 C15         5.0627   -5.2583   -2.5751 C.3       1 <0>        -0.1212
     27 C16         3.9992   -6.3583   -2.5707 C.3       1 <0>        -0.1223
     28 C17         3.1385   -6.2305   -1.3123 C.3       1 <0>        -0.1217
     29 C18         4.0237   -6.3721   -0.0724 C.3       1 <0>        -0.1022
     30 O5          5.9140   -5.4045    1.0812 O.3       1 <0>        -0.5451
     31 N5          4.2724    1.8152   -0.0299 N.pl3     1 <0>        -0.8147
     32 H4         -0.9093    1.9664    0.0254 H         1 <0>         0.2186
     33 H5         -0.9533   -1.7785    0.5988 H         1 <0>         0.1368
     34 H6         -5.4727   -0.3132   -0.5397 H         1 <0>         0.0642
     35 H7         -4.7212   -1.1317    0.8509 H         1 <0>         0.0593
     36 H8         -5.8270    0.8849    1.4962 H         1 <0>         0.3861
     37 H9         -4.5793   -0.9327   -2.7335 H         1 <0>         0.3907
     38 H10        -1.2137   -0.5468   -3.2954 H         1 <0>         0.3945
     39 H11         6.7056   -4.6164   -1.3384 H         1 <0>         0.0706
     40 H12         6.4341   -6.3755   -1.3455 H         1 <0>         0.0852
     41 H13         4.5765   -4.2828   -2.5649 H         1 <0>         0.0649
     42 H14         5.6759   -5.3494   -3.4717 H         1 <0>         0.0690
     43 H15         3.3685   -6.2574   -3.4540 H         1 <0>         0.0660
     44 H16         4.4854   -7.3338   -2.5809 H         1 <0>         0.0661
     45 H17         2.6523   -5.2550   -1.3021 H         1 <0>         0.0690
     46 H18         2.3808   -7.0141   -1.3092 H         1 <0>         0.0729
     47 H19         4.5099   -7.3477   -0.0826 H         1 <0>         0.0829
     48 H20         3.4106   -6.2811    0.8241 H         1 <0>         0.0758
     49 H21         6.6122   -4.7384    1.1442 H         1 <0>         0.3827
     50 H22         3.8626    2.6943   -0.0213 H         1 <0>         0.4211
     51 H23         5.2386    1.7306   -0.0398 H         1 <0>         0.4115
@<TRIPOS>BOND
     1    1    9 1
     2    1    2 2
     3    1   32 1
     4    2    3 1
     5    3    8 ar
     6    3    4 ar
     7    4    5 ar
     8    4   31 1
     9    5    6 ar
    10    6    7 ar
    11    6   22 1
    12    7    8 ar
    13    8    9 1
    14    9   10 1
    15   10   17 1
    16   10   11 1
    17   10   33 1
    18   11   12 1
    19   11   13 1
    20   11   21 1
    21   13   14 1
    22   13   15 1
    23   13   20 1
    24   15   16 1
    25   15   17 1
    26   15   18 1
    27   18   19 1
    28   18   34 1
    29   18   35 1
    30   19   36 1
    31   20   37 1
    32   21   38 1
    33   22   23 3
    34   23   24 1
    35   24   29 1
    36   24   25 1
    37   24   30 1
    38   25   26 1
    39   25   39 1
    40   25   40 1
    41   26   27 1
    42   26   41 1
    43   26   42 1
    44   27   28 1
    45   27   43 1
    46   27   44 1
    47   28   29 1
    48   28   45 1
    49   28   46 1
    50   29   47 1
    51   29   48 1
    52   30   49 1
    53   31   50 1
    54   31   51 1
@<TRIPOS>MOLECULE
CHEMBL222097
   64    69     0     0     0
SMALL
USER_CHARGES

@<TRIPOS>ATOM
      1 C1         -0.0162    1.3433    0.0094 C.2       1 <0>        -0.2197
      2 C2          1.3252    1.7744   -0.0011 C.2       1 <0>        -0.1241
      3 C3          2.0963    0.6547   -0.0144 C.2       1 <0>         0.0315
      4 O1          1.2798   -0.4167   -0.0124 O.3       1 <0>        -0.1586
      5 C4          0.0021   -0.0041    0.0020 C.2       1 <0>        -0.0006
      6 C5          3.5735    0.6192   -0.0292 C.2       1 <0>         0.3322
      7 N1          4.3782    1.6975   -0.0257 N.2       1 <0>        -0.4761
      8 C6          5.6284    1.3133   -0.0438 C.2       1 <0>         0.4991
      9 N2          6.7827    2.0136   -0.0426 N.2       1 <0>        -0.5248
     10 C7          7.9149    1.3544   -0.2245 C.2       1 <0>         0.6637
     11 N3          7.9251    0.0030   -0.4737 N.pl3     1 <0>        -0.7080
     12 C8          6.8335   -0.7612   -0.0614 C.2       1 <0>         0.6312
     13 N4          5.6350   -0.0666   -0.0535 N.pl3     1 <0>        -0.3829
     14 N5          4.3125   -0.4776   -0.0421 N.2       1 <0>        -0.2426
     15 N6          6.9320   -2.0133    0.2840 N.2       1 <0>        -0.6516
     16 N7          9.1029    2.0335   -0.1638 N.pl3     1 <0>        -0.5995
     17 C9         10.3866    1.3423   -0.3661 C.3       1 <0>         0.0903
     18 C10        11.3005    1.6893    0.8113 C.3       1 <0>        -0.0210
     19 N8         11.4311    3.1501    0.9330 N.4       1 <0>        -0.3823
     20 C11        12.3915    3.4256    2.0122 C.3       1 <0>        -0.0012
     21 C12        12.6152    4.9311    2.1496 C.3       1 <0>        -0.1107
     22 H1         13.3336    5.1226    2.9467 H         1 <0>         0.1331
     23 C13        11.2787    5.5987    2.4911 C.3       1 <0>        -0.1329
     24 C14        10.2734    5.2712    1.3860 C.3       1 <0>        -0.1427
     25 C15        10.1305    3.7519    1.2449 C.3       1 <0>         0.0173
     26 H2          9.7485    3.3332    2.1760 H         1 <0>         0.1467
     27 C16         9.1400    3.4780    0.0994 C.3       1 <0>         0.1090
     28 C17        13.1504    5.4926    0.8309 C.3       1 <0>         0.0484
     29 N9         13.4773    6.9147    1.0009 N.3       1 <0>        -0.6773
     30 C18        13.9955    7.4888   -0.2480 C.3       1 <0>         0.1055
     31 C19        14.3189    8.9452   -0.0352 C.ar      1 <0>        -0.1481
     32 C20        13.4300    9.9184   -0.4517 C.ar      1 <0>        -0.0538
     33 C21        13.7251   11.2542   -0.2568 C.ar      1 <0>        -0.1643
     34 C22        14.9123   11.6194    0.3558 C.ar      1 <0>         0.1436
     35 C23        15.8030   10.6460    0.7733 C.ar      1 <0>        -0.1952
     36 C24        15.5037    9.3078    0.5826 C.ar      1 <0>         0.1584
     37 F1         16.3698    8.3563    0.9947 F         1 <0>        -0.1226
     38 F2         15.2009   12.9256    0.5454 F         1 <0>        -0.1245
     39 H3         -0.8931    1.9736    0.0252 H         1 <0>         0.1612
     40 H4          1.6735    2.7967    0.0011 H         1 <0>         0.1629
     41 H5         -0.8667   -0.6456    0.0069 H         1 <0>         0.2154
     42 H6          7.7947   -2.4563    0.2614 H         1 <0>         0.3684
     43 H7         10.2237    0.2651   -0.4012 H         1 <0>         0.1238
     44 H8         10.8427    1.6772   -1.2978 H         1 <0>         0.1126
     45 H9         10.8752    1.2862    1.7304 H         1 <0>         0.1384
     46 H10        12.2846    1.2505    0.6469 H         1 <0>         0.1527
     47 H11        12.0025    3.0313    2.9510 H         1 <0>         0.1346
     48 H12        13.3399    2.9391    1.7844 H         1 <0>         0.1364
     49 H13        10.9121    5.2172    3.4440 H         1 <0>         0.0895
     50 H14        11.4145    6.6783    2.5540 H         1 <0>         0.0999
     51 H15         9.3052    5.7042    1.6374 H         1 <0>         0.1208
     52 H16        10.6225    5.6913    0.4427 H         1 <0>         0.0902
     53 H17         9.4634    4.0037   -0.7990 H         1 <0>         0.1027
     54 H18         8.1461    3.8217    0.3858 H         1 <0>         0.1529
     55 H19        14.0476    4.9458    0.5406 H         1 <0>         0.0883
     56 H20        12.3921    5.3844    0.0554 H         1 <0>         0.0265
     57 H21        14.8984    6.9558   -0.5458 H         1 <0>         0.0898
     58 H22        13.2430    7.3943   -1.0309 H         1 <0>         0.0502
     59 H23        12.5043    9.6345   -0.9302 H         1 <0>         0.1411
     60 H24        13.0298   12.0137   -0.5826 H         1 <0>         0.1469
     61 H25        16.7290   10.9299    1.2511 H         1 <0>         0.1525
     62 H26        12.6773    7.4325    1.3324 H         1 <0>         0.3486
     63 H27         8.6760   -0.4109   -0.9272 H         1 <0>         0.4282
     64 H28        11.7789    3.5306    0.0656 H         1 <0>         0.4209
@<TRIPOS>BOND
     1    1    5 2
     2    1    2 1
     3    1   39 1
     4    2    3 2
     5    2   40 1
     6    3    4 1
     7    3    6 1
     8    4    5 1
     9    5   41 1
    10    6   14 2
    11    6    7 1
    12    7    8 2
    13    8   13 1
    14    8    9 1
    15    9   10 2
    16   10   11 1
    17   10   16 1
    18   11   12 1
    19   11   63 1
    20   12   13 1
    21   12   15 2
    22   13   14 1
    23   15   42 1
    24   16   27 1
    25   16   17 1
    26   17   18 1
    27   17   43 1
    28   17   44 1
    29   18   19 1
    30   18   45 1
    31   18   46 1
    32   19   25 1
    33   19   20 1
    34   19   64 1
    35   20   21 1
    36   20   47 1
    37   20   48 1
    38   21   22 1
    39   21   23 1
    40   21   28 1
    41   23   24 1
    42   23   49 1
    43   23   50 1
    44   24   25 1
    45   24   51 1
    46   24   52 1
    47   25   26 1
    48   25   27 1
    49   27   53 1
    50   27   54 1
    51   28   29 1
    52   28   55 1
    53   28   56 1
    54   29   30 1
    55   29   62 1
    56   30   31 1
    57   30   57 1
    58   30   58 1
    59   31   36 ar
    60   31   32 ar
    61   32   33 ar
    62   32   59 1
    63   33   34 ar
    64   33   60 1
    65   34   35 ar
    66   34   38 1
    67   35   36 ar
    68   35   61 1
    69   36   37 1
@<TRIPOS>MOLECULE
CHEMBL608029
   53    56     0     0     0
SMALL
USER_CHARGES

@<TRIPOS>ATOM
      1 C1         -0.0187    1.5258    0.0104 C.3       1 <0>        -0.1548
      2 C2          0.0021   -0.0041    0.0020 C.3       1 <0>        -0.1252
      3 C3          0.7182   -0.4975   -1.2568 C.3       1 <0>        -0.1179
      4 C4          0.7390   -2.0273   -1.2652 C.3       1 <0>        -0.0121
      5 C5          1.4280   -2.5020   -2.4763 C.1       1 <0>        -0.0867
      6 C6          1.9775   -2.8806   -3.4422 C.1       1 <0>        -0.1284
      7 C7          2.6477   -3.3425   -4.6204 C.ar      1 <0>         0.4990
      8 N1          3.1294   -2.4472   -5.4786 N.ar      1 <0>        -0.5738
      9 C8          3.7578   -2.8264   -6.5837 C.ar      1 <0>         0.5135
     10 C9          3.9074   -4.2029   -6.8346 C.ar      1 <0>        -0.0986
     11 C10         3.3824   -5.1125   -5.8997 C.ar      1 <0>         0.3148
     12 N2          2.7722   -4.6477   -4.8166 N.ar      1 <0>        -0.5417
     13 N3          3.6662   -6.3633   -6.3886 N.pl3     1 <0>        -0.4629
     14 C11         4.3329   -6.1995   -7.5664 C.2       1 <0>         0.2831
     15 N4          4.4731   -4.9317   -7.8258 N.2       1 <0>        -0.4631
     16 C12         3.3173   -7.6398   -5.7599 C.3       1 <0>         0.3156
     17 C13         4.4021   -8.0321   -4.7339 C.3       1 <0>         0.0789
     18 H1          4.0770   -7.8031   -3.7190 H         1 <0>         0.1047
     19 C14         4.5158   -9.5665   -4.9449 C.3       1 <0>         0.0511
     20 H2          3.7523  -10.0987   -4.3776 H         1 <0>         0.0995
     21 C15         4.2557   -9.6739   -6.4686 C.3       1 <0>         0.0344
     22 H3          5.1710   -9.4692   -7.0240 H         1 <0>         0.1198
     23 O1          3.2661   -8.6719   -6.7518 O.3       1 <0>        -0.3264
     24 C16         3.7303  -11.0434   -6.8143 C.2       1 <0>         0.5161
     25 O2          2.6058  -11.1690   -7.2509 O.2       1 <0>        -0.5011
     26 N5          4.5101  -12.1285   -6.6384 N.am      1 <0>        -0.6997
     27 C17         3.9993  -13.4598   -6.9744 C.3       1 <0>         0.0747
     28 C18         4.9350  -14.4055   -7.7301 C.3       1 <0>        -0.1895
     29 C19         4.6214  -14.6577   -6.2540 C.3       1 <0>        -0.1856
     30 O3          5.8230  -10.0369   -4.6103 O.3       1 <0>        -0.5352
     31 O4          5.6396   -7.3810   -5.0282 O.3       1 <0>        -0.5332
     32 N6          4.2552   -1.8882   -7.4712 N.pl3     1 <0>        -0.8152
     33 H4          1.0039    1.9031    0.0027 H         1 <0>         0.0543
     34 H5         -0.5459    1.8868   -0.8726 H         1 <0>         0.0548
     35 H6         -0.5289    1.8773    0.9072 H         1 <0>         0.0551
     36 H7          0.5293   -0.3651    0.8851 H         1 <0>         0.0643
     37 H8         -1.0205   -0.3814    0.0098 H         1 <0>         0.0648
     38 H9          0.1910   -0.1364   -2.1398 H         1 <0>         0.0698
     39 H10         1.7408   -0.1202   -1.2645 H         1 <0>         0.0680
     40 H11         1.2661   -2.3884   -0.3821 H         1 <0>         0.0945
     41 H12        -0.2836   -2.4046   -1.2575 H         1 <0>         0.0958
     42 H13         4.6924   -7.0033   -8.1918 H         1 <0>         0.2175
     43 H14         2.3504   -7.5554   -5.2639 H         1 <0>         0.1422
     44 H15         5.4094  -12.0280   -6.2892 H         1 <0>         0.3984
     45 H16         2.9359  -13.5101   -7.2086 H         1 <0>         0.1416
     46 H17         4.4873  -15.0780   -8.4618 H         1 <0>         0.1062
     47 H18         5.9306  -14.0370   -7.9773 H         1 <0>         0.0995
     48 H19         5.4106  -14.4553   -5.5300 H         1 <0>         0.0992
     49 H20         3.9673  -15.4962   -6.0146 H         1 <0>         0.1074
     50 H21         5.9400  -10.9897   -4.7268 H         1 <0>         0.3846
     51 H22         6.3531   -7.5953   -4.4116 H         1 <0>         0.3955
     52 H23         4.1460   -0.9419   -7.2882 H         1 <0>         0.4114
     53 H24         4.7130   -2.1769   -8.2762 H         1 <0>         0.4209
@<TRIPOS>BOND
     1    1    2 1
     2    1   33 1
     3    1   34 1
     4    1   35 1
     5    2    3 1
     6    2   36 1
     7    2   37 1
     8    3    4 1
     9    3   38 1
    10    3   39 1
    11    4    5 1
    12    4   40 1
    13    4   41 1
    14    5    6 3
    15    6    7 1
    16    7   12 ar
    17    7    8 ar
    18    8    9 ar
    19    9   10 ar
    20    9   32 1
    21   10   15 1
    22   10   11 ar
    23   11   12 ar
    24   11   13 1
    25   13   14 1
    26   13   16 1
    27   14   15 2
    28   14   42 1
    29   16   23 1
    30   16   17 1
    31   16   43 1
    32   17   18 1
    33   17   19 1
    34   17   31 1
    35   19   20 1
    36   19   21 1
    37   19   30 1
    38   21   22 1
    39   21   23 1
    40   21   24 1
    41   24   25 2
    42   24   26 am
    43   26   27 1
    44   26   44 1
    45   27   29 1
    46   27   28 1
    47   27   45 1
    48   28   29 1
    49   28   46 1
    50   28   47 1
    51   29   48 1
    52   29   49 1
    53   30   50 1
    54   31   51 1
    55   32   52 1
    56   32   53 1
@<TRIPOS>MOLECULE
CHEMBL611571
   50    53     0     0     0
SMALL
USER_CHARGES

@<TRIPOS>ATOM
      1 C1         -0.0184    1.5028    0.0103 C.3       1 <0>        -0.1194
      2 C2          0.0021   -0.0041    0.0020 C.ar      1 <0>        -0.0715
      3 C3          0.0057   -0.6860   -1.2020 C.ar      1 <0>        -0.1260
      4 C4          0.0239   -2.0651   -1.2172 C.ar      1 <0>        -0.0877
      5 C5          0.0392   -2.7734   -0.0132 C.ar      1 <0>        -0.0562
      6 C6          0.0359   -2.0782    1.1985 C.ar      1 <0>        -0.0748
      7 C7          0.0229   -0.6990    1.1984 C.ar      1 <0>        -0.1263
      8 C8          0.0582   -4.2479   -0.0213 C.2       1 <0>         0.0942
      9 N1          0.0724   -4.9029    1.0991 N.2       1 <0>        -0.2003
     10 N2          0.0905   -6.3038    1.0914 N.pl3     1 <0>        -0.5429
     11 C9          0.1056   -7.0030    2.2874 C.ar      1 <0>         0.6467
     12 N3          0.0972   -6.3230    3.4276 N.ar      1 <0>        -0.5934
     13 C10         0.1111   -6.9476    4.5993 C.ar      1 <0>         0.5370
     14 C11         0.1349   -8.3535    4.6117 C.ar      1 <0>        -0.1375
     15 C12         0.1430   -9.0304    3.3809 C.ar      1 <0>         0.3499
     16 N4          0.1226   -8.3258    2.2541 N.ar      1 <0>        -0.6096
     17 N5          0.1661  -10.3682    3.6846 N.pl3     1 <0>        -0.4649
     18 C13         0.1715  -10.4786    5.0444 C.2       1 <0>         0.2702
     19 N6          0.1532   -9.2957    5.5860 N.2       1 <0>        -0.4591
     20 C14         0.1813  -11.4750    2.7249 C.3       1 <0>         0.3153
     21 C15        -1.2622  -11.8185    2.2987 C.3       1 <0>         0.0768
     22 H1         -1.4908  -11.3902    1.3228 H         1 <0>         0.0967
     23 C16        -1.2244  -13.3694    2.2266 C.3       1 <0>         0.0472
     24 H2         -0.8344  -13.7087    1.2670 H         1 <0>         0.0926
     25 C17        -0.2375  -13.6932    3.3764 C.3       1 <0>         0.0515
     26 H3         -0.7582  -13.6907    4.3340 H         1 <0>         0.0987
     27 O1          0.7409  -12.6422    3.3381 O.3       1 <0>        -0.3459
     28 C18         0.4281  -15.0502    3.1386 C.3       1 <0>         0.0780
     29 O2          1.2443  -15.3840    4.2630 O.3       1 <0>        -0.5625
     30 O3         -2.5146  -13.9284    2.4814 O.3       1 <0>        -0.5427
     31 O4         -2.2015  -11.3736    3.2794 O.3       1 <0>        -0.5330
     32 N7          0.1026   -6.2304    5.7825 N.pl3     1 <0>        -0.8146
     33 H4          1.0042    1.8801    0.0026 H         1 <0>         0.0728
     34 H5         -0.5455    1.8639   -0.8728 H         1 <0>         0.0677
     35 H6         -0.5286    1.8543    0.9071 H         1 <0>         0.0680
     36 H7         -0.0062   -0.1371   -2.1320 H         1 <0>         0.1260
     37 H8          0.0259   -2.5961   -2.1577 H         1 <0>         0.1274
     38 H9          0.0473   -2.6194    2.1331 H         1 <0>         0.1363
     39 H10         0.0248   -0.1601    2.1344 H         1 <0>         0.1253
     40 H11         0.0603   -4.7828   -0.9596 H         1 <0>         0.1191
     41 H12         0.0924   -6.7842    0.2487 H         1 <0>         0.4020
     42 H13         0.1884  -11.4101    5.5906 H         1 <0>         0.2140
     43 H14         0.7704  -11.1981    1.8507 H         1 <0>         0.1340
     44 H15        -0.3391  -15.8132    3.0072 H         1 <0>         0.0634
     45 H16         1.0470  -14.9992    2.2428 H         1 <0>         0.0587
     46 H17         1.6982  -16.2340    4.1811 H         1 <0>         0.3855
     47 H18        -2.5384  -14.8945    2.4467 H         1 <0>         0.3901
     48 H19        -3.1228  -11.5662    3.0575 H         1 <0>         0.3928
     49 H20         0.0865   -5.2608    5.7619 H         1 <0>         0.4101
     50 H21         0.1129   -6.6973    6.6327 H         1 <0>         0.4202
@<TRIPOS>BOND
     1    1    2 1
     2    1   33 1
     3    1   34 1
     4    1   35 1
     5    2    7 ar
     6    2    3 ar
     7    3    4 ar
     8    3   36 1
     9    4    5 ar
    10    4   37 1
    11    5    6 ar
    12    5    8 1
    13    6    7 ar
    14    6   38 1
    15    7   39 1
    16    8    9 2
    17    8   40 1
    18    9   10 1
    19   10   11 1
    20   10   41 1
    21   11   16 ar
    22   11   12 ar
    23   12   13 ar
    24   13   14 ar
    25   13   32 1
    26   14   19 1
    27   14   15 ar
    28   15   16 ar
    29   15   17 1
    30   17   18 1
    31   17   20 1
    32   18   19 2
    33   18   42 1
    34   20   27 1
    35   20   21 1
    36   20   43 1
    37   21   22 1
    38   21   23 1
    39   21   31 1
    40   23   24 1
    41   23   25 1
    42   23   30 1
    43   25   26 1
    44   25   27 1
    45   25   28 1
    46   28   29 1
    47   28   44 1
    48   28   45 1
    49   29   46 1
    50   30   47 1
    51   31   48 1
    52   32   49 1
    53   32   50 1
@<TRIPOS>MOLECULE
CHEMBL264433
   37    40     0     0     0
SMALL
USER_CHARGES

@<TRIPOS>ATOM
      1 C1         -0.0167    1.3781    0.0096 C.ar      1 <0>        -0.1090
      2 C2          1.1709    2.0855    0.0021 C.ar      1 <0>        -0.1221
      3 C3          2.3773    1.4107   -0.0130 C.ar      1 <0>        -0.0975
      4 C4          2.3960    0.0285   -0.0201 C.ar      1 <0>        -0.1140
      5 C5          1.2084   -0.6789   -0.0117 C.ar      1 <0>        -0.0975
      6 C6          0.0021   -0.0041    0.0020 C.ar      1 <0>        -0.1221
      7 C7          3.7112   -0.7071   -0.0376 C.3       1 <0>         0.1806
      8 N1          4.1518   -0.9524    1.3379 N.pl3     1 <0>        -0.6922
      9 C8          5.3442   -1.6192    1.5755 C.ar      1 <0>         0.5716
     10 N2          6.0563   -2.0123    0.5401 N.ar      1 <0>        -0.5269
     11 C9          7.2263   -2.6662    0.7000 C.ar      1 <0>         0.2205
     12 C10         8.1439   -3.1736   -0.3009 C.2       1 <0>        -0.1596
     13 C11         9.2660   -3.8015    0.0931 C.2       1 <0>        -0.1126
     14 S1          9.1681   -3.7549    1.8731 S.3       1 <0>         0.1247
     15 C12         7.6277   -2.8961    2.0403 C.ar      1 <0>        -0.2577
     16 C13         6.8487   -2.4667    3.1018 C.ar      1 <0>         0.2118
     17 N3          5.7100   -1.8227    2.8320 N.ar      1 <0>        -0.5141
     18 C14         7.2712   -2.7092    4.5012 C.2       1 <0>         0.4934
     19 O1          8.3147   -3.2925    4.7294 O.2       1 <0>        -0.4139
     20 C15         6.4344   -2.2477    5.6080 C.2       1 <0>        -0.2944
     21 C16         6.6476   -2.3668    6.9772 C.2       1 <0>        -0.0603
     22 C17         5.6737   -1.8284    7.7799 C.2       1 <0>        -0.1957
     23 C18         4.5978   -1.2324    7.2041 C.2       1 <0>        -0.2436
     24 S2          4.8787   -1.3788    5.5542 S.3       1 <0>         0.3061
     25 H1         -0.9591    1.9053    0.0259 H         1 <0>         0.1241
     26 H2          1.1563    3.1654    0.0076 H         1 <0>         0.1249
     27 H3          3.3051    1.9634   -0.0196 H         1 <0>         0.1241
     28 H4          1.2231   -1.7588   -0.0176 H         1 <0>         0.1241
     29 H5         -0.9258   -0.5567    0.0082 H         1 <0>         0.1249
     30 H6          3.5884   -1.6586   -0.5549 H         1 <0>         0.0773
     31 H7          4.4573   -0.1052   -0.5563 H         1 <0>         0.0774
     32 H8          3.6095   -0.6484    2.0824 H         1 <0>         0.4173
     33 H9          7.9286   -3.0491   -1.3518 H         1 <0>         0.1540
     34 H10        10.0421   -4.2317   -0.5224 H         1 <0>         0.2042
     35 H11         7.5232   -2.8521    7.3825 H         1 <0>         0.1484
     36 H12         5.7614   -1.8781    8.8552 H         1 <0>         0.1360
     37 H13         3.7560   -0.7668    7.6948 H         1 <0>         0.1877
@<TRIPOS>BOND
     1    1    6 ar
     2    1    2 ar
     3    1   25 1
     4    2    3 ar
     5    2   26 1
     6    3    4 ar
     7    3   27 1
     8    4    5 ar
     9    4    7 1
    10    5    6 ar
    11    5   28 1
    12    6   29 1
    13    7    8 1
    14    7   30 1
    15    7   31 1
    16    8    9 1
    17    8   32 1
    18    9   17 ar
    19    9   10 ar
    20   10   11 ar
    21   11   15 ar
    22   11   12 1
    23   12   13 2
    24   12   33 1
    25   13   14 1
    26   13   34 1
    27   14   15 1
    28   15   16 ar
    29   16   17 ar
    30   16   18 1
    31   18   19 2
    32   18   20 1
    33   20   24 1
    34   20   21 2
    35   21   22 1
    36   21   35 1
    37   22   23 2
    38   22   36 1
    39   23   24 1
    40   23   37 1
@<TRIPOS>MOLECULE
CHEMBL479784
   60    66     0     0     0
SMALL
USER_CHARGES

@<TRIPOS>ATOM
      1 C1         -0.0084    1.3138    0.1234 C.2       1 <0>        -0.2202
      2 C2          1.3331    1.7449    0.1149 C.2       1 <0>        -0.1323
      3 C3          2.1038    0.6257    0.0770 C.2       1 <0>         0.0346
      4 O1          1.2872   -0.4455    0.0627 O.3       1 <0>        -0.1521
      5 C4          0.0097   -0.0332    0.0907 C.2       1 <0>         0.0008
      6 C5          3.5812    0.5904    0.0553 C.2       1 <0>         0.3573
      7 N1          4.3296   -0.5192    0.0127 N.2       1 <0>        -0.5119
      8 C6          5.6052   -0.1922    0.0043 C.2       1 <0>         0.4036
      9 C7          6.8564   -0.9498   -0.0347 C.2       1 <0>        -0.2640
     10 C8          7.1838   -2.3169   -0.0793 C.2       1 <0>         0.1390
     11 N2          8.4836   -2.4296   -0.1005 N.2       1 <0>        -0.2670
     12 N3          9.0633   -1.1551   -0.0712 N.pl3     1 <0>        -0.3637
     13 C9          8.0619   -0.2317   -0.0304 C.2       1 <0>         0.3717
     14 N4          8.0336    1.1076    0.0096 N.2       1 <0>        -0.5699
     15 C10         6.9113    1.7832    0.0453 C.2       1 <0>         0.6972
     16 N5          5.6895    1.1753    0.0428 N.pl3     1 <0>        -0.3778
     17 N6          4.3711    1.6476    0.0692 N.2       1 <0>        -0.2978
     18 N7          6.9669    3.1568    0.0851 N.pl3     1 <0>        -0.8001
     19 C11        10.4991   -0.8646   -0.0816 C.3       1 <0>         0.1467
     20 C12        10.9800   -0.7211   -1.5269 C.3       1 <0>        -0.1076
     21 C13        12.4571   -0.4222   -1.5376 C.ar      1 <0>        -0.0749
     22 C14        12.8910    0.9008   -1.4986 C.ar      1 <0>        -0.0269
     23 C15        14.2180    1.2046   -1.5070 C.ar      1 <0>        -0.1445
     24 C16        15.1699    0.1717   -1.5551 C.ar      1 <0>         0.1611
     25 C17        14.7263   -1.1727   -1.5942 C.ar      1 <0>        -0.1148
     26 C18        13.3505   -1.4495   -1.5795 C.ar      1 <0>        -0.0437
     27 C19        15.6807   -2.2091   -1.6424 C.ar      1 <0>         0.0665
     28 C20        17.0006   -1.8715   -1.6495 C.ar      1 <0>        -0.2194
     29 C21        17.3766   -0.5213   -1.6093 C.ar      1 <0>         0.4978
     30 N8         16.4799    0.4426   -1.5639 N.ar      1 <0>        -0.5270
     31 N9         18.7240   -0.1930   -1.6171 N.pl3     1 <0>        -0.5810
     32 C22        19.7584   -1.2367   -1.5387 C.3       1 <0>         0.0691
     33 C23        20.7668   -1.0039   -2.6695 C.3       1 <0>         0.0422
     34 O2         21.2253    0.3493   -2.6203 O.3       1 <0>        -0.3626
     35 C24        20.1990    1.3228   -2.8274 C.3       1 <0>         0.0471
     36 C25        19.1616    1.2088   -1.7103 C.3       1 <0>         0.0561
     37 H1         -0.8851    1.9437    0.1549 H         1 <0>         0.1610
     38 H2          1.6816    2.7669    0.1340 H         1 <0>         0.1603
     39 H3         -0.8592   -0.6747    0.0882 H         1 <0>         0.2159
     40 H4          6.4787   -3.1349   -0.0935 H         1 <0>         0.2046
     41 H5          7.8257    3.6077    0.0864 H         1 <0>         0.4296
     42 H6          6.1472    3.6748    0.1118 H         1 <0>         0.4286
     43 H7         10.6858    0.0643    0.4573 H         1 <0>         0.1014
     44 H8         11.0382   -1.6795    0.4015 H         1 <0>         0.1039
     45 H9         10.7934   -1.6500   -2.0659 H         1 <0>         0.0966
     46 H10        10.4410    0.0938   -2.0100 H         1 <0>         0.0923
     47 H11        12.1634    1.6980   -1.4616 H         1 <0>         0.1537
     48 H12        14.5381    2.2357   -1.4771 H         1 <0>         0.1519
     49 H13        13.0019   -2.4714   -1.6053 H         1 <0>         0.1585
     50 H14        15.3735   -3.2440   -1.6726 H         1 <0>         0.1789
     51 H15        17.7560   -2.6426   -1.6857 H         1 <0>         0.1810
     52 H16        20.2664   -1.1784   -0.5761 H         1 <0>         0.1092
     53 H17        19.2988   -2.2184   -1.6530 H         1 <0>         0.1148
     54 H18        21.6133   -1.6797   -2.5474 H         1 <0>         0.1280
     55 H19        20.2864   -1.1908   -3.6299 H         1 <0>         0.0679
     56 H20        20.6369    2.3209   -2.8188 H         1 <0>         0.1269
     57 H21        19.7165    1.1444   -3.7884 H         1 <0>         0.0664
     58 H22        18.3069    1.8458   -1.9382 H         1 <0>         0.0908
     59 H23        19.6084    1.5175   -0.7653 H         1 <0>         0.1124
     60 H24        16.7751    1.3662   -1.5370 H         1 <0>         0.4341
@<TRIPOS>BOND
     1    1    5 2
     2    1    2 1
     3    1   37 1
     4    2    3 2
     5    2   38 1
     6    3    4 1
     7    3    6 1
     8    4    5 1
     9    5   39 1
    10    6   17 2
    11    6    7 1
    12    7    8 2
    13    8   16 1
    14    8    9 1
    15    9   13 2
    16    9   10 1
    17   10   11 2
    18   10   40 1
    19   11   12 1
    20   12   13 1
    21   12   19 1
    22   13   14 1
    23   14   15 2
    24   15   16 1
    25   15   18 1
    26   16   17 1
    27   18   41 1
    28   18   42 1
    29   19   20 1
    30   19   43 1
    31   19   44 1
    32   20   21 1
    33   20   45 1
    34   20   46 1
    35   21   26 ar
    36   21   22 ar
    37   22   23 ar
    38   22   47 1
    39   23   24 ar
    40   23   48 1
    41   24   30 ar
    42   24   25 ar
    43   25   26 ar
    44   25   27 ar
    45   26   49 1
    46   27   28 ar
    47   27   50 1
    48   28   29 ar
    49   28   51 1
    50   29   30 ar
    51   29   31 1
    52   30   60 1
    53   31   36 1
    54   31   32 1
    55   32   33 1
    56   32   52 1
    57   32   53 1
    58   33   34 1
    59   33   54 1
    60   33   55 1
    61   34   35 1
    62   35   36 1
    63   35   56 1
    64   35   57 1
    65   36   58 1
    66   36   59 1
@<TRIPOS>MOLECULE
CHEMBL312449
   27    29     0     0     0
SMALL
USER_CHARGES

@<TRIPOS>ATOM
      1 C1         -0.1971   -1.1743    0.9673 C.3       1 <0>        -0.1563
      2 C2          0.0021   -0.0041    0.0020 C.3       1 <0>        -0.0495
      3 C3          0.7074   -0.4901   -1.2379 C.2       1 <0>         0.2041
      4 N1          0.1395   -0.8313   -2.3689 N.2       1 <0>        -0.2599
      5 N2          1.0335   -1.1986   -3.2199 N.2       1 <0>        -0.2276
      6 C4          2.2245   -1.1084   -2.6677 C.2       1 <0>         0.1188
      7 N3          2.0369   -0.6473   -1.3876 N.pl3     1 <0>        -0.3790
      8 C5          3.1384   -0.4527   -0.5707 C.ar      1 <0>         0.0602
      9 C6          2.9786    0.0095    0.7295 C.ar      1 <0>        -0.0903
     10 C7          4.0817    0.2004    1.5360 C.ar      1 <0>        -0.0315
     11 C8          5.3576   -0.0676    1.0561 C.ar      1 <0>        -0.0077
     12 C9          5.5358   -0.5266   -0.2293 C.ar      1 <0>        -0.0685
     13 C10         4.4265   -0.7254   -1.0614 C.ar      1 <0>         0.1721
     14 N4          4.6054   -1.1787   -2.3287 N.2       1 <0>        -0.5480
     15 C11         3.5865   -1.3824   -3.1324 C.2       1 <0>         0.5236
     16 N5          3.8000   -1.8421   -4.4183 N.pl3     1 <0>        -0.7962
     17 Cl1         6.7353    0.1784    2.0834 Cl        1 <0>        -0.0257
     18 Cl2         3.8741    0.7793    3.1595 Cl        1 <0>        -0.0277
     19 H1         -0.7991   -1.9446    0.4851 H         1 <0>         0.0701
     20 H2          0.7731   -1.5893    1.2403 H         1 <0>         0.0566
     21 H3         -0.7073   -0.8228    1.8641 H         1 <0>         0.0811
     22 H4         -0.9682    0.4109   -0.2710 H         1 <0>         0.1153
     23 H5          0.6040    0.7662    0.4842 H         1 <0>         0.0918
     24 H6          1.9897    0.2199    1.1095 H         1 <0>         0.1600
     25 H7          6.5303   -0.7333   -0.5961 H         1 <0>         0.1665
     26 H8          3.0476   -1.9836   -5.0139 H         1 <0>         0.4251
     27 H9          4.7022   -2.0233   -4.7250 H         1 <0>         0.4227
@<TRIPOS>BOND
     1    1    2 1
     2    1   19 1
     3    1   20 1
     4    1   21 1
     5    2    3 1
     6    2   22 1
     7    2   23 1
     8    3    7 1
     9    3    4 2
    10    4    5 1
    11    5    6 2
    12    6   15 1
    13    6    7 1
    14    7    8 1
    15    8   13 ar
    16    8    9 ar
    17    9   10 ar
    18    9   24 1
    19   10   11 ar
    20   10   18 1
    21   11   12 ar
    22   11   17 1
    23   12   13 ar
    24   12   25 1
    25   13   14 1
    26   14   15 2
    27   15   16 1
    28   16   26 1
    29   16   27 1
@<TRIPOS>MOLECULE
CHEMBL596308
   37    39     0     0     0
SMALL
USER_CHARGES

@<TRIPOS>ATOM
      1 C1         -0.0184    1.5028    0.0103 C.3       1 <0>        -0.0805
      2 C2          0.0021   -0.0041    0.0020 C.2       1 <0>         0.0235
      3 C3         -1.0833   -0.8051    0.0027 C.2       1 <0>        -0.2237
      4 C4         -0.6166   -2.1325   -0.0067 C.2       1 <0>        -0.1203
      5 C5          0.7434   -2.0699   -0.0126 C.2       1 <0>        -0.0091
      6 O1          1.1027   -0.7711   -0.0131 O.3       1 <0>        -0.1605
      7 C6          1.6633   -3.2227   -0.0231 C.ar      1 <0>         0.3071
      8 C7          3.0525   -3.0257   -0.0227 C.ar      1 <0>        -0.2148
      9 C8          3.8770   -4.1456   -0.0329 C.ar      1 <0>         0.1821
     10 N1          3.3236   -5.3582   -0.0426 N.ar      1 <0>        -0.5536
     11 C9          2.0090   -5.5063   -0.0428 C.ar      1 <0>         0.5814
     12 N2          1.1880   -4.4674   -0.0277 N.ar      1 <0>        -0.5453
     13 N3          1.4763   -6.7842   -0.0536 N.pl3     1 <0>        -0.8160
     14 C10         5.3533   -3.9925   -0.0333 C.2       1 <0>         0.5733
     15 O2          5.8490   -2.8835   -0.0248 O.2       1 <0>        -0.5166
     16 N4          6.1439   -5.0840   -0.0433 N.am      1 <0>        -0.7052
     17 C11         7.6011   -4.9329   -0.0437 C.3       1 <0>         0.1892
     18 C12         8.2473   -6.2943   -0.0557 C.2       1 <0>        -0.0167
     19 C13         8.6682   -6.9791    1.0270 C.2       1 <0>        -0.1663
     20 C14         9.2077   -8.1983    0.5714 C.2       1 <0>        -0.2038
     21 C15         9.0958   -8.2121   -0.7724 C.2       1 <0>         0.0008
     22 N5          8.5017   -7.0486   -1.1626 N.pl3     1 <0>        -0.5521
     23 H1          8.2964   -6.7978   -2.0768 H         1 <0>         0.4146
     24 H2          1.0042    1.8801    0.0026 H         1 <0>         0.0805
     25 H3         -0.5455    1.8639   -0.8728 H         1 <0>         0.0918
     26 H4         -0.5286    1.8543    0.9071 H         1 <0>         0.0920
     27 H5         -2.1155   -0.4875    0.0092 H         1 <0>         0.1571
     28 H6         -1.2205   -3.0279   -0.0082 H         1 <0>         0.1605
     29 H7          3.4707   -2.0300   -0.0150 H         1 <0>         0.1623
     30 H8          2.0651   -7.5550   -0.0609 H         1 <0>         0.4180
     31 H9          0.5143   -6.9087   -0.0538 H         1 <0>         0.4180
     32 H10         5.7481   -5.9695   -0.0501 H         1 <0>         0.4145
     33 H11         7.9085   -4.3771   -0.9295 H         1 <0>         0.0784
     34 H12         7.9106   -4.3917    0.8504 H         1 <0>         0.0960
     35 H13         8.6040   -6.6528    2.0545 H         1 <0>         0.1380
     36 H14         9.6330   -8.9784    1.1855 H         1 <0>         0.1384
     37 H15         9.4174   -9.0092   -1.4264 H         1 <0>         0.1668
@<TRIPOS>BOND
     1    1    2 1
     2    1   24 1
     3    1   25 1
     4    1   26 1
     5    2    6 1
     6    2    3 2
     7    3    4 1
     8    3   27 1
     9    4    5 2
    10    4   28 1
    11    5    6 1
    12    5    7 1
    13    7   12 ar
    14    7    8 ar
    15    8    9 ar
    16    8   29 1
    17    9   10 ar
    18    9   14 1
    19   10   11 ar
    20   11   12 ar
    21   11   13 1
    22   13   30 1
    23   13   31 1
    24   14   15 2
    25   14   16 am
    26   16   17 1
    27   16   32 1
    28   17   18 1
    29   17   33 1
    30   17   34 1
    31   18   22 1
    32   18   19 2
    33   19   20 1
    34   19   35 1
    35   20   21 2
    36   20   36 1
    37   21   22 1
    38   21   37 1
    39   22   23 1
@<TRIPOS>MOLECULE
CHEMBL375128
   59    64     0     0     0
SMALL
USER_CHARGES

@<TRIPOS>ATOM
      1 C1         -0.0162    1.3433    0.0094 C.2       1 <0>        -0.2197
      2 C2          1.3252    1.7744   -0.0011 C.2       1 <0>        -0.1238
      3 C3          2.0963    0.6547   -0.0144 C.2       1 <0>         0.0312
      4 O1          1.2798   -0.4167   -0.0124 O.3       1 <0>        -0.1587
      5 C4          0.0021   -0.0041    0.0020 C.2       1 <0>        -0.0005
      6 C5          3.5735    0.6192   -0.0292 C.2       1 <0>         0.3325
      7 N1          4.3782    1.6975   -0.0257 N.2       1 <0>        -0.4756
      8 C6          5.6284    1.3133   -0.0438 C.2       1 <0>         0.4988
      9 N2          6.7827    2.0136   -0.0426 N.2       1 <0>        -0.5240
     10 C7          7.9149    1.3544   -0.2245 C.2       1 <0>         0.6634
     11 N3          7.9251    0.0030   -0.4737 N.pl3     1 <0>        -0.7079
     12 C8          6.8335   -0.7612   -0.0614 C.2       1 <0>         0.6313
     13 N4          5.6350   -0.0666   -0.0535 N.pl3     1 <0>        -0.3830
     14 N5          4.3125   -0.4776   -0.0421 N.2       1 <0>        -0.2424
     15 N6          6.9320   -2.0133    0.2840 N.2       1 <0>        -0.6515
     16 N7          9.1029    2.0335   -0.1638 N.pl3     1 <0>        -0.5999
     17 C9         10.3866    1.3423   -0.3661 C.3       1 <0>         0.0902
     18 C10        11.3005    1.6893    0.8113 C.3       1 <0>        -0.0214
     19 N8         11.4311    3.1501    0.9330 N.4       1 <0>        -0.3851
     20 C11        12.3915    3.4256    2.0122 C.3       1 <0>         0.0009
     21 C12        12.6152    4.9311    2.1496 C.3       1 <0>        -0.1104
     22 H1         13.3336    5.1226    2.9467 H         1 <0>         0.1356
     23 C13        11.2787    5.5987    2.4911 C.3       1 <0>        -0.1289
     24 C14        10.2734    5.2712    1.3860 C.3       1 <0>        -0.1436
     25 C15        10.1305    3.7519    1.2449 C.3       1 <0>         0.0151
     26 H2          9.7485    3.3332    2.1760 H         1 <0>         0.1492
     27 C16         9.1400    3.4780    0.0994 C.3       1 <0>         0.1086
     28 C17        13.1504    5.4926    0.8309 C.3       1 <0>         0.0467
     29 O2         13.4684    6.8759    0.9963 O.3       1 <0>        -0.2956
     30 C18        13.9592    7.5294   -0.0875 C.ar      1 <0>         0.1607
     31 C19        14.1335    6.8688   -1.3011 C.ar      1 <0>        -0.2667
     32 C20        14.6346    7.5683   -2.3796 C.ar      1 <0>         0.1414
     33 N9         14.9473    8.8457   -2.2709 N.ar      1 <0>        -0.4995
     34 C21        14.7963    9.5059   -1.1383 C.ar      1 <0>         0.1440
     35 C22        14.2957    8.8788   -0.0159 C.ar      1 <0>        -0.1983
     36 H3         -0.8931    1.9736    0.0252 H         1 <0>         0.1613
     37 H4          1.6735    2.7967    0.0011 H         1 <0>         0.1630
     38 H5         -0.8667   -0.6456    0.0069 H         1 <0>         0.2155
     39 H6          7.7947   -2.4563    0.2614 H         1 <0>         0.3683
     40 H7         10.2237    0.2651   -0.4012 H         1 <0>         0.1248
     41 H8         10.8427    1.6772   -1.2978 H         1 <0>         0.1130
     42 H9         10.8752    1.2862    1.7304 H         1 <0>         0.1402
     43 H10        12.2846    1.2505    0.6469 H         1 <0>         0.1534
     44 H11        12.0025    3.0313    2.9510 H         1 <0>         0.1427
     45 H12        13.3399    2.9391    1.7844 H         1 <0>         0.1389
     46 H13        10.9121    5.2172    3.4440 H         1 <0>         0.0910
     47 H14        11.4145    6.6783    2.5540 H         1 <0>         0.1072
     48 H15         9.3052    5.7042    1.6374 H         1 <0>         0.1240
     49 H16        10.6225    5.6913    0.4427 H         1 <0>         0.0914
     50 H17         9.4634    4.0037   -0.7990 H         1 <0>         0.1038
     51 H18         8.1461    3.8217    0.3858 H         1 <0>         0.1543
     52 H19        14.0476    4.9458    0.5406 H         1 <0>         0.0781
     53 H20        12.3921    5.3844    0.0554 H         1 <0>         0.0585
     54 H21        13.8803    5.8233   -1.3966 H         1 <0>         0.1318
     55 H22        14.7731    7.0639   -3.3246 H         1 <0>         0.1611
     56 H23        15.0641   10.5511   -1.0905 H         1 <0>         0.1698
     57 H24        14.1706    9.4260    0.9068 H         1 <0>         0.1471
     58 H25         8.6760   -0.4109   -0.9272 H         1 <0>         0.4281
     59 H26        11.7789    3.5306    0.0656 H         1 <0>         0.4195
@<TRIPOS>BOND
     1    1    5 2
     2    1    2 1
     3    1   36 1
     4    2    3 2
     5    2   37 1
     6    3    4 1
     7    3    6 1
     8    4    5 1
     9    5   38 1
    10    6   14 2
    11    6    7 1
    12    7    8 2
    13    8   13 1
    14    8    9 1
    15    9   10 2
    16   10   11 1
    17   10   16 1
    18   11   12 1
    19   11   58 1
    20   12   13 1
    21   12   15 2
    22   13   14 1
    23   15   39 1
    24   16   27 1
    25   16   17 1
    26   17   18 1
    27   17   40 1
    28   17   41 1
    29   18   19 1
    30   18   42 1
    31   18   43 1
    32   19   25 1
    33   19   20 1
    34   19   59 1
    35   20   21 1
    36   20   44 1
    37   20   45 1
    38   21   22 1
    39   21   23 1
    40   21   28 1
    41   23   24 1
    42   23   46 1
    43   23   47 1
    44   24   25 1
    45   24   48 1
    46   24   49 1
    47   25   26 1
    48   25   27 1
    49   27   50 1
    50   27   51 1
    51   28   29 1
    52   28   52 1
    53   28   53 1
    54   29   30 1
    55   30   35 ar
    56   30   31 ar
    57   31   32 ar
    58   31   54 1
    59   32   33 ar
    60   32   55 1
    61   33   34 ar
    62   34   35 ar
    63   34   56 1
    64   35   57 1
@<TRIPOS>MOLECULE
CHEMBL209366
   49    52     0     0     0
SMALL
USER_CHARGES

@<TRIPOS>ATOM
      1 C1         -0.3924   -1.8609   -7.3048 C.3       1 <0>        -0.1479
      2 C2         -0.5270   -3.2130   -6.6015 C.3       1 <0>        -0.1386
      3 C3          0.6775   -3.4329   -5.6841 C.3       1 <0>         0.1124
      4 N1          0.5486   -4.7276   -5.0108 N.am      1 <0>        -0.5466
      5 C4         -0.0924   -4.7991   -3.8258 C.2       1 <0>         0.5939
      6 O1         -0.5613   -3.7962   -3.3177 O.2       1 <0>        -0.5036
      7 C5         -0.2140   -6.0488   -3.1820 C.2       1 <0>        -0.1324
      8 C6          0.3307   -7.1779   -3.7854 C.2       1 <0>         0.3235
      9 N2          0.0856   -8.2176   -2.9890 N.2       1 <0>        -0.4735
     10 H1         -1.2497   -5.9232   -1.3494 H         1 <0>         0.4392
     11 C7         -0.5783   -7.8179   -1.9225 C.2       1 <0>         0.3254
     12 N3         -0.7872   -6.4748   -1.9996 N.pl3     1 <0>        -0.5072
     13 C8         -1.0253   -8.6909   -0.8164 C.ar      1 <0>         0.0253
     14 C9         -1.7291   -8.1516    0.2616 C.ar      1 <0>        -0.1200
     15 C10        -2.1437   -8.9719    1.2904 C.ar      1 <0>        -0.0096
     16 C11        -1.8629  -10.3262    1.2554 C.ar      1 <0>        -0.6601
     17 C12        -1.1657  -10.8672    0.1898 C.ar      1 <0>        -0.0149
     18 C13        -0.7504  -10.0590   -0.8483 C.ar      1 <0>        -0.0867
     19 S1         -2.3952  -11.3666    2.5741 S.o2      1 <0>         2.6883
     20 O2         -1.4603  -12.4339    2.6521 O.2       1 <0>        -0.9466
     21 O3         -2.6724  -10.5146    3.6771 O.2       1 <0>        -0.9424
     22 N4         -3.8398  -12.0352    2.1177 N.pl3     1 <0>        -1.0609
     23 C14        -4.9463  -11.2153    1.8849 C.ar      1 <0>         0.1165
     24 C15        -5.6338  -10.6538    2.9535 C.ar      1 <0>        -0.1037
     25 C16        -6.7272   -9.8431    2.7197 C.ar      1 <0>        -0.1111
     26 C17        -7.1381   -9.5905    1.4237 C.ar      1 <0>        -0.1081
     27 C18        -6.4560  -10.1479    0.3577 C.ar      1 <0>        -0.1142
     28 C19        -5.3583  -10.9548    0.5841 C.ar      1 <0>        -0.1113
     29 N5          0.9779   -7.0374   -5.0034 N.am      1 <0>        -0.6110
     30 H2          1.3635   -7.8135   -5.4392 H         1 <0>         0.4407
     31 C20         1.0660   -5.8268   -5.5856 C.2       1 <0>         0.7131
     32 O4          1.6330   -5.7243   -6.6565 O.2       1 <0>        -0.5257
     33 H3          0.5225   -1.8489   -7.8971 H         1 <0>         0.0604
     34 H4         -1.2505   -1.7043   -7.9584 H         1 <0>         0.0621
     35 H5         -0.3533   -1.0662   -6.5597 H         1 <0>         0.0593
     36 H6         -1.4419   -3.2250   -6.0091 H         1 <0>         0.0677
     37 H7         -0.5661   -4.0077   -7.3465 H         1 <0>         0.0701
     38 H8          1.5924   -3.4209   -6.2765 H         1 <0>         0.1057
     39 H9          0.7166   -2.6382   -4.9391 H         1 <0>         0.1033
     40 H10        -1.9482   -7.0944    0.2904 H         1 <0>         0.1345
     41 H11        -2.6883   -8.5559    2.1251 H         1 <0>         0.1513
     42 H12        -0.9498  -11.9252    0.1686 H         1 <0>         0.1509
     43 H13        -0.2098  -10.4831   -1.6815 H         1 <0>         0.1536
     44 H14        -3.9176  -12.9963    2.0121 H         1 <0>         0.4275
     45 H15        -5.3138  -10.8513    3.9659 H         1 <0>         0.1362
     46 H16        -7.2621   -9.4063    3.5500 H         1 <0>         0.1312
     47 H17        -7.9939   -8.9568    1.2437 H         1 <0>         0.1276
     48 H18        -6.7796   -9.9485   -0.6533 H         1 <0>         0.1282
     49 H19        -4.8234  -11.3862   -0.2490 H         1 <0>         0.1285
@<TRIPOS>BOND
     1    1    2 1
     2    1   33 1
     3    1   34 1
     4    1   35 1
     5    2    3 1
     6    2   36 1
     7    2   37 1
     8    3   38 1
     9    3   39 1
    10    3    4 1
    11    4   31 am
    12    4    5 am
    13    5    6 2
    14    5    7 1
    15    7   12 1
    16    7    8 2
    17    8    9 1
    18    8   29 1
    19    9   11 2
    20   10   12 1
    21   11   12 1
    22   11   13 1
    23   13   18 ar
    24   13   14 ar
    25   14   15 ar
    26   14   40 1
    27   15   16 ar
    28   15   41 1
    29   16   17 ar
    30   16   19 1
    31   17   18 ar
    32   17   42 1
    33   18   43 1
    34   19   20 2
    35   19   21 2
    36   19   22 1
    37   22   23 1
    38   22   44 1
    39   23   28 ar
    40   23   24 ar
    41   24   25 ar
    42   24   45 1
    43   25   26 ar
    44   25   46 1
    45   26   27 ar
    46   26   47 1
    47   27   28 ar
    48   27   48 1
    49   28   49 1
    50   29   30 1
    51   29   31 am
    52   31   32 2
@<TRIPOS>MOLECULE
CHEMBL315562
   37    41     0     0     0
SMALL
USER_CHARGES

@<TRIPOS>ATOM
      1 C1         -0.0162    1.3433    0.0094 C.2       1 <0>        -0.2196
      2 C2          1.3253    1.7743   -0.0011 C.2       1 <0>        -0.1339
      3 C3          2.0962    0.6548   -0.0144 C.2       1 <0>         0.0400
      4 O1          1.2798   -0.4166   -0.0124 O.3       1 <0>        -0.1522
      5 C4          0.0021   -0.0041    0.0020 C.2       1 <0>        -0.0020
      6 C5          3.5737    0.6192   -0.0292 C.2       1 <0>         0.3414
      7 N1          4.3230   -0.4907   -0.0476 N.2       1 <0>        -0.4832
      8 C6          5.5965   -0.1648   -0.0567 C.2       1 <0>         0.4052
      9 C7          6.8498   -0.9267   -0.0770 C.2       1 <0>        -0.0233
     10 C8          8.0722   -0.1962   -0.0819 C.2       1 <0>         0.2641
     11 N2          8.0333    1.1588   -0.0685 N.2       1 <0>        -0.5193
     12 C9          6.9053    1.8184   -0.0511 C.2       1 <0>         0.6773
     13 N3          5.6826    1.2018   -0.0438 N.pl3     1 <0>        -0.3657
     14 N4          4.3636    1.6758   -0.0320 N.2       1 <0>        -0.2725
     15 N5          6.9481    3.1933   -0.0378 N.pl3     1 <0>        -0.8027
     16 N6          9.0225   -1.1099   -0.1000 N.2       1 <0>        -0.2590
     17 N7          8.4770   -2.2767   -0.1059 N.pl3     1 <0>        -0.1123
     18 N8          7.1909   -2.1968   -0.0926 N.2       1 <0>        -0.2009
     19 C10         9.2247   -3.5363   -0.1258 C.3       1 <0>         0.1827
     20 C11         9.4949   -3.9825    1.2881 C.ar      1 <0>        -0.1469
     21 C12        10.6457   -3.5710    1.9342 C.ar      1 <0>        -0.0540
     22 C13        10.8944   -3.9791    3.2309 C.ar      1 <0>        -0.1590
     23 C14         9.9903   -4.8004    3.8830 C.ar      1 <0>         0.1204
     24 C15         8.8381   -5.2119    3.2349 C.ar      1 <0>        -0.1588
     25 C16         8.5890   -4.7982    1.9400 C.ar      1 <0>        -0.0553
     26 F1         10.2326   -5.2004    5.1505 F         1 <0>        -0.1339
     27 H1         -0.8931    1.9735    0.0252 H         1 <0>         0.1604
     28 H2          1.6736    2.7966    0.0008 H         1 <0>         0.1614
     29 H3         -0.8667   -0.6456    0.0069 H         1 <0>         0.2148
     30 H4          7.8028    3.6520   -0.0415 H         1 <0>         0.4320
     31 H5          6.1236    3.7042   -0.0249 H         1 <0>         0.4254
     32 H6          8.6399   -4.2979   -0.6416 H         1 <0>         0.1306
     33 H7         10.1704   -3.3893   -0.6474 H         1 <0>         0.1315
     34 H8         11.3509   -2.9306    1.4252 H         1 <0>         0.1417
     35 H9         11.7937   -3.6578    3.7353 H         1 <0>         0.1421
     36 H10         8.1323   -5.8528    3.7424 H         1 <0>         0.1421
     37 H11         7.6881   -5.1154    1.4358 H         1 <0>         0.1414
@<TRIPOS>BOND
     1    1    5 2
     2    1    2 1
     3    1   27 1
     4    2    3 2
     5    2   28 1
     6    3    4 1
     7    3    6 1
     8    4    5 1
     9    5   29 1
    10    6   14 2
    11    6    7 1
    12    7    8 2
    13    8   13 1
    14    8    9 1
    15    9   18 2
    16    9   10 1
    17   10   11 1
    18   10   16 2
    19   11   12 2
    20   12   13 1
    21   12   15 1
    22   13   14 1
    23   15   30 1
    24   15   31 1
    25   16   17 1
    26   17   18 1
    27   17   19 1
    28   19   20 1
    29   19   32 1
    30   19   33 1
    31   20   25 ar
    32   20   21 ar
    33   21   22 ar
    34   21   34 1
    35   22   23 ar
    36   22   35 1
    37   23   24 ar
    38   23   26 1
    39   24   25 ar
    40   24   36 1
    41   25   37 1
@<TRIPOS>MOLECULE
CHEMBL595365
   38    40     0     0     0
SMALL
USER_CHARGES

@<TRIPOS>ATOM
      1 C1         -0.0184    1.5028    0.0103 C.3       1 <0>        -0.0806
      2 C2          0.0021   -0.0041    0.0020 C.2       1 <0>         0.0241
      3 C3         -1.0833   -0.8051    0.0027 C.2       1 <0>        -0.2238
      4 C4         -0.6166   -2.1325   -0.0067 C.2       1 <0>        -0.1195
      5 C5          0.7434   -2.0699   -0.0126 C.2       1 <0>        -0.0097
      6 O1          1.1027   -0.7711   -0.0131 O.3       1 <0>        -0.1604
      7 C6          1.6633   -3.2227   -0.0231 C.ar      1 <0>         0.3082
      8 C7          3.0525   -3.0257   -0.0227 C.ar      1 <0>        -0.2134
      9 C8          3.8770   -4.1456   -0.0329 C.ar      1 <0>         0.1826
     10 N1          3.3236   -5.3582   -0.0426 N.ar      1 <0>        -0.5545
     11 C9          2.0090   -5.5063   -0.0428 C.ar      1 <0>         0.5824
     12 N2          1.1880   -4.4674   -0.0277 N.ar      1 <0>        -0.5444
     13 N3          1.4763   -6.7842   -0.0536 N.pl3     1 <0>        -0.8155
     14 C10         5.3533   -3.9925   -0.0333 C.2       1 <0>         0.5793
     15 O2          5.8490   -2.8835   -0.0248 O.2       1 <0>        -0.5117
     16 N4          6.1439   -5.0840   -0.0433 N.am      1 <0>        -0.7039
     17 C11         7.6011   -4.9329   -0.0437 C.3       1 <0>         0.1919
     18 C12         8.2473   -6.2943   -0.0557 C.2       1 <0>         0.0870
     19 C13         8.6948   -6.9862   -1.1955 C.2       1 <0>        -0.2808
     20 C14         9.2106   -8.1641   -0.7949 C.2       1 <0>         0.0789
     21 O3          9.1022   -8.2315    0.5408 O.3       1 <0>        -0.0717
     22 N5          8.4940   -7.0335    0.9886 N.2       1 <0>        -0.2995
     23 C15         9.8048   -9.2210   -1.6898 C.3       1 <0>        -0.0911
     24 H1          1.0042    1.8801    0.0026 H         1 <0>         0.0806
     25 H2         -0.5455    1.8639   -0.8728 H         1 <0>         0.0920
     26 H3         -0.5286    1.8543    0.9071 H         1 <0>         0.0920
     27 H4         -2.1155   -0.4875    0.0092 H         1 <0>         0.1572
     28 H5         -1.2205   -3.0279   -0.0082 H         1 <0>         0.1606
     29 H6          3.4707   -2.0300   -0.0150 H         1 <0>         0.1632
     30 H7          2.0651   -7.5550   -0.0609 H         1 <0>         0.4181
     31 H8          0.5143   -6.9087   -0.0538 H         1 <0>         0.4183
     32 H9          5.7481   -5.9695   -0.0501 H         1 <0>         0.4162
     33 H10         7.9085   -4.3771   -0.9295 H         1 <0>         0.1042
     34 H11         7.9106   -4.3917    0.8504 H         1 <0>         0.0975
     35 H12         8.6348   -6.6343   -2.2148 H         1 <0>         0.1630
     36 H13        10.8727   -9.0380   -1.8087 H         1 <0>         0.0971
     37 H14         9.6521  -10.2034   -1.2428 H         1 <0>         0.0886
     38 H15         9.3194   -9.1862   -2.6651 H         1 <0>         0.0974
@<TRIPOS>BOND
     1    1    2 1
     2    1   24 1
     3    1   25 1
     4    1   26 1
     5    2    6 1
     6    2    3 2
     7    3    4 1
     8    3   27 1
     9    4    5 2
    10    4   28 1
    11    5    6 1
    12    5    7 1
    13    7   12 ar
    14    7    8 ar
    15    8    9 ar
    16    8   29 1
    17    9   10 ar
    18    9   14 1
    19   10   11 ar
    20   11   12 ar
    21   11   13 1
    22   13   30 1
    23   13   31 1
    24   14   15 2
    25   14   16 am
    26   16   17 1
    27   16   32 1
    28   17   18 1
    29   17   33 1
    30   17   34 1
    31   18   22 2
    32   18   19 1
    33   19   20 2
    34   19   35 1
    35   20   21 1
    36   20   23 1
    37   21   22 1
    38   23   36 1
    39   23   37 1
    40   23   38 1
@<TRIPOS>MOLECULE
CHEMBL486162
   57    60     0     0     0
SMALL
USER_CHARGES

@<TRIPOS>ATOM
      1 C1         -0.2213    1.6590   -0.7999 C.3       1 <0>        -0.0760
      2 C2         -0.0893    0.1755   -0.5696 C.2       1 <0>         0.0987
      3 C3         -0.2430   -0.8211   -1.5408 C.2       1 <0>        -0.2595
      4 C4         -0.0480   -2.0189   -0.9440 C.2       1 <0>         0.1202
      5 N1          0.2213   -1.7856    0.3677 N.pl3     1 <0>        -0.3231
      6 N2          0.1938   -0.3996    0.5703 N.2       1 <0>        -0.2652
      7 C5          0.4831   -2.7532    1.3378 C.ar      1 <0>         0.6075
      8 N3          0.5923   -2.3825    2.6019 N.ar      1 <0>        -0.5213
      9 C6          0.8414   -3.2779    3.5566 C.ar      1 <0>         0.2622
     10 C7          0.9865   -4.6184    3.2053 C.ar      1 <0>        -0.2486
     11 C8          0.8639   -4.9672    1.8615 C.ar      1 <0>         0.4378
     12 N4          0.6098   -4.0171    0.9678 N.ar      1 <0>        -0.5252
     13 N5          1.0006   -6.2923    1.4619 N.am      1 <0>        -0.6545
     14 C9          0.9857   -6.6059    0.1513 C.2       1 <0>         0.5002
     15 O1          0.7604   -5.7474   -0.6751 O.2       1 <0>        -0.4631
     16 C10         1.2490   -8.0234   -0.2874 C.3       1 <0>        -0.1686
     17 C11         0.9631   -2.8536    4.9734 C.ar      1 <0>         0.2072
     18 C12         0.8100   -1.5115    5.3060 C.ar      1 <0>        -0.1502
     19 C13         0.9251   -1.1252    6.6329 C.ar      1 <0>        -0.0339
     20 C14         1.1897   -2.0947    7.5844 C.ar      1 <0>        -0.2110
     21 C15         1.3318   -3.4209    7.1843 C.ar      1 <0>         0.3927
     22 N6          1.2115   -3.7591    5.9116 N.ar      1 <0>        -0.5171
     23 N7          1.5982   -4.4005    8.1337 N.pl3     1 <0>        -0.6287
     24 C16         1.9741   -5.7639    7.7288 C.3       1 <0>         0.1061
     25 C17         3.2435   -6.1636    8.4882 C.3       1 <0>        -0.0233
     26 N8          3.0222   -5.9989    9.9305 N.4       1 <0>        -0.3847
     27 C18         2.8039   -4.5812   10.2443 C.3       1 <0>        -0.0223
     28 C19         1.5182   -4.1017    9.5719 C.3       1 <0>         0.1017
     29 C20         4.1988   -6.4853   10.6633 C.3       1 <0>        -0.0471
     30 C21        -0.1176   -3.3679   -1.6120 C.3       1 <0>        -0.0826
     31 H1          0.7491    2.0715   -1.0762 H         1 <0>         0.0836
     32 H2         -0.9351    1.8398   -1.6035 H         1 <0>         0.0845
     33 H3         -0.5732    2.1386    0.1134 H         1 <0>         0.0772
     34 H4         -0.4761   -0.6614   -2.5831 H         1 <0>         0.1612
     35 H5          1.1892   -5.3684    3.9555 H         1 <0>         0.1598
     36 H6          1.1067   -6.9908    2.1266 H         1 <0>         0.4238
     37 H7          1.4292   -8.6471    0.5881 H         1 <0>         0.0785
     38 H8          0.3836   -8.4021   -0.8313 H         1 <0>         0.1043
     39 H9          2.1245   -8.0463   -0.9363 H         1 <0>         0.1040
     40 H10         0.6042   -0.7788    4.5397 H         1 <0>         0.1568
     41 H11         0.8109   -0.0896    6.9177 H         1 <0>         0.1489
     42 H12         1.2854   -1.8255    8.6259 H         1 <0>         0.1381
     43 H13         1.1674   -6.4546    7.9748 H         1 <0>         0.0875
     44 H14         2.1662   -5.7876    6.6562 H         1 <0>         0.1341
     45 H15         3.4826   -7.2052    8.2738 H         1 <0>         0.1419
     46 H16         4.0710   -5.5282    8.1727 H         1 <0>         0.1316
     47 H17         2.7190   -4.4568   11.3239 H         1 <0>         0.1443
     48 H18         3.6447   -3.9937    9.8756 H         1 <0>         0.1333
     49 H19         1.4090   -3.0270    9.7172 H         1 <0>         0.1292
     50 H20         0.6647   -4.6216   10.0071 H         1 <0>         0.0933
     51 H21         5.0764   -5.9133   10.3621 H         1 <0>         0.1216
     52 H22         4.0357   -6.3637   11.7341 H         1 <0>         0.1256
     53 H23         4.3572   -7.5398   10.4373 H         1 <0>         0.1255
     54 H24         0.8860   -3.6857   -1.8945 H         1 <0>         0.0857
     55 H25        -0.5477   -4.0935   -0.9216 H         1 <0>         0.0981
     56 H26        -0.7416   -3.3003   -2.5032 H         1 <0>         0.0742
     57 H27         2.2119   -6.5323   10.2082 H         1 <0>         0.4253
@<TRIPOS>BOND
     1    1    2 1
     2    1   31 1
     3    1   32 1
     4    1   33 1
     5    2    6 2
     6    2    3 1
     7    3    4 2
     8    3   34 1
     9    4    5 1
    10    4   30 1
    11    5    6 1
    12    5    7 1
    13    7   12 ar
    14    7    8 ar
    15    8    9 ar
    16    9   10 ar
    17    9   17 1
    18   10   11 ar
    19   10   35 1
    20   11   12 ar
    21   11   13 1
    22   13   14 am
    23   13   36 1
    24   14   15 2
    25   14   16 1
    26   16   37 1
    27   16   38 1
    28   16   39 1
    29   17   22 ar
    30   17   18 ar
    31   18   19 ar
    32   18   40 1
    33   19   20 ar
    34   19   41 1
    35   20   21 ar
    36   20   42 1
    37   21   22 ar
    38   21   23 1
    39   23   28 1
    40   23   24 1
    41   24   25 1
    42   24   43 1
    43   24   44 1
    44   25   26 1
    45   25   45 1
    46   25   46 1
    47   26   27 1
    48   26   29 1
    49   26   57 1
    50   27   28 1
    51   27   47 1
    52   27   48 1
    53   28   49 1
    54   28   50 1
    55   29   51 1
    56   29   52 1
    57   29   53 1
    58   30   54 1
    59   30   55 1
    60   30   56 1
@<TRIPOS>MOLECULE
CHEMBL572600
   52    56     0     0     0
SMALL
USER_CHARGES

@<TRIPOS>ATOM
      1 C1         -0.0187    1.5258    0.0104 C.3       1 <0>        -0.1548
      2 C2          0.0021   -0.0041    0.0020 C.3       1 <0>        -0.0938
      3 C3          0.7421   -0.5109    1.2415 C.3       1 <0>        -0.1485
      4 C4         -1.4333   -0.5336    0.0129 C.3       1 <0>        -0.1299
      5 C5         -2.1352   -0.1312   -1.2857 C.3       1 <0>         0.1250
      6 N1         -3.5096   -0.6383   -1.2753 N.pl3     1 <0>        -0.3345
      7 C6         -4.6117    0.1099   -1.4570 C.2       1 <0>         0.1577
      8 C7         -5.6996   -0.7205   -1.3790 C.2       1 <0>        -0.2673
      9 C8         -5.1826   -2.0755   -1.1291 C.2       1 <0>         0.3010
     10 N2         -3.8733   -1.9760   -1.0807 N.2       1 <0>        -0.2475
     11 N3         -6.0727   -3.0955   -1.0094 N.2       1 <0>        -0.4469
     12 C9         -7.3582   -2.9033   -1.1097 C.2       1 <0>         0.6516
     13 N4         -7.9297   -1.6812   -1.3412 N.pl3     1 <0>        -0.3750
     14 C10        -7.1554   -0.5608   -1.4831 C.2       1 <0>         0.4112
     15 N5         -7.9535    0.4618   -1.6931 N.2       1 <0>        -0.5121
     16 C11        -9.2275    0.0462   -1.6928 C.2       1 <0>         0.3452
     17 N6         -9.2586   -1.2552   -1.4831 N.2       1 <0>        -0.2918
     18 C12       -10.4097    0.9091   -1.8972 C.2       1 <0>         0.0431
     19 C13       -11.7062    0.5000   -1.8937 C.2       1 <0>        -0.1367
     20 C14       -12.4938    1.6453   -2.1248 C.2       1 <0>        -0.2191
     21 C15       -11.6480    2.6860   -2.2567 C.2       1 <0>        -0.0051
     22 O1        -10.3901    2.2385   -2.1136 O.3       1 <0>        -0.1533
     23 N7         -8.1921   -3.9967   -0.9750 N.am      1 <0>        -0.6453
     24 C16        -7.6703   -5.2182   -0.7467 C.2       1 <0>         0.5060
     25 O2         -6.4689   -5.3576   -0.6596 O.2       1 <0>        -0.4285
     26 C17        -8.5799   -6.4107   -0.5998 C.3       1 <0>        -0.0458
     27 C18        -7.7528   -7.6460   -0.3529 C.2       1 <0>        -0.1441
     28 C19        -7.3444   -8.1785    0.8247 C.2       1 <0>        -0.1347
     29 C20        -6.5842   -9.3329    0.8106 C.2       1 <0>        -0.1587
     30 C21        -6.2695   -9.8982   -0.3804 C.2       1 <0>        -0.1666
     31 S1         -7.0631   -8.7920   -1.5354 S.3       1 <0>         0.0530
     32 H1          1.0039    1.9031    0.0027 H         1 <0>         0.0596
     33 H2         -0.5459    1.8868   -0.8726 H         1 <0>         0.0552
     34 H3         -0.5289    1.8773    0.9072 H         1 <0>         0.0574
     35 H4          0.5123   -0.3556   -0.8948 H         1 <0>         0.0759
     36 H5          0.2319   -0.1594    2.1383 H         1 <0>         0.0557
     37 H6          0.7568   -1.6008    1.2356 H         1 <0>         0.0574
     38 H7          1.7647   -0.1336    1.2338 H         1 <0>         0.0586
     39 H8         -1.4190   -1.6203    0.0965 H         1 <0>         0.0839
     40 H9         -1.9701   -0.1109    0.8621 H         1 <0>         0.0720
     41 H10        -2.1495    0.9555   -1.3693 H         1 <0>         0.1094
     42 H11        -1.5984   -0.5539   -2.1349 H         1 <0>         0.0983
     43 H12        -4.6358    1.1753   -1.6325 H         1 <0>         0.2001
     44 H13       -12.0634   -0.5080   -1.7432 H         1 <0>         0.1607
     45 H14       -13.5715    1.6820   -2.1849 H         1 <0>         0.1595
     46 H15       -11.9345    3.7105   -2.4428 H         1 <0>         0.2138
     47 H16        -9.1532   -3.8851   -1.0447 H         1 <0>         0.4310
     48 H17        -9.2549   -6.2514    0.2411 H         1 <0>         0.1254
     49 H18        -9.1611   -6.5390   -1.5130 H         1 <0>         0.1184
     50 H19        -7.6088   -7.7078    1.7601 H         1 <0>         0.1323
     51 H20        -6.2457   -9.7775    1.7348 H         1 <0>         0.1349
     52 H21        -5.6920  -10.7890   -0.5791 H         1 <0>         0.1866
@<TRIPOS>BOND
     1    1    2 1
     2    1   32 1
     3    1   33 1
     4    1   34 1
     5    2    3 1
     6    2    4 1
     7    2   35 1
     8    3   36 1
     9    3   37 1
    10    3   38 1
    11    4    5 1
    12    4   39 1
    13    4   40 1
    14    5    6 1
    15    5   41 1
    16    5   42 1
    17    6   10 1
    18    6    7 1
    19    7    8 2
    20    7   43 1
    21    8   14 1
    22    8    9 1
    23    9   10 2
    24    9   11 1
    25   11   12 2
    26   12   13 1
    27   12   23 1
    28   13   17 1
    29   13   14 1
    30   14   15 2
    31   15   16 1
    32   16   17 2
    33   16   18 1
    34   18   22 1
    35   18   19 2
    36   19   20 1
    37   19   44 1
    38   20   21 2
    39   20   45 1
    40   21   22 1
    41   21   46 1
    42   23   24 am
    43   23   47 1
    44   24   25 2
    45   24   26 1
    46   26   27 1
    47   26   48 1
    48   26   49 1
    49   27   31 1
    50   27   28 2
    51   28   29 1
    52   28   50 1
    53   29   30 2
    54   29   51 1
    55   30   31 1
    56   30   52 1
@<TRIPOS>MOLECULE
CHEMBL1099028
   51    55     0     0     0
SMALL
USER_CHARGES

@<TRIPOS>ATOM
      1 C1         -0.0167    1.3793    0.0096 C.ar      1 <0>        -0.0928
      2 C2          1.1685    2.0929    0.0021 C.ar      1 <0>        -0.1340
      3 C3          2.3774    1.4279   -0.0130 C.ar      1 <0>        -0.0661
      4 C4          2.4029    0.0333   -0.0207 C.ar      1 <0>        -0.0812
      5 C5          1.2046   -0.6805   -0.0131 C.ar      1 <0>        -0.0595
      6 C6          0.0021   -0.0041    0.0020 C.ar      1 <0>        -0.1270
      7 C7          3.6972   -0.6866   -0.0375 C.ar      1 <0>         0.3423
      8 C8          3.8485   -1.9053    0.6416 C.ar      1 <0>        -0.3478
      9 C9          5.0995   -2.5526    0.5963 C.ar      1 <0>         0.3069
     10 N1          6.0850   -1.9878   -0.0854 N.ar      1 <0>        -0.5633
     11 C10         5.9016   -0.8324   -0.7162 C.ar      1 <0>         0.6027
     12 N2          4.7422   -0.1938   -0.7026 N.ar      1 <0>        -0.5701
     13 N3          6.9560   -0.2811   -1.4137 N.pl3     1 <0>        -0.8044
     14 C11         5.0091   -3.8087    1.3828 C.ar      1 <0>        -0.0375
     15 C12         5.9398   -4.8012    1.6568 C.ar      1 <0>        -0.0609
     16 C13         5.5832   -5.8911    2.4363 C.ar      1 <0>        -0.0639
     17 C14         4.3040   -5.9981    2.9448 C.ar      1 <0>        -0.0785
     18 C15         3.3631   -5.0152    2.6796 C.ar      1 <0>        -0.0500
     19 C16         3.7079   -3.9189    1.9009 C.ar      1 <0>        -0.1421
     20 C17         2.9384   -2.7304    1.4536 C.2       1 <0>         0.4632
     21 O1          1.7764   -2.4848    1.7094 O.2       1 <0>        -0.4120
     22 C18         6.5980   -6.9658    2.7299 C.3       1 <0>         0.1070
     23 N4          7.3232   -6.6308    3.9628 N.3       1 <0>        -0.5244
     24 N5          8.3131   -7.6482    4.2778 N.3       1 <0>        -0.3837
     25 C19         7.9830   -8.3322    5.5344 C.3       1 <0>         0.0742
     26 C20         8.9001   -9.5483    5.7083 C.3       1 <0>        -0.1656
     27 C21        10.3354   -9.0808    5.5873 C.2       1 <0>         0.3576
     28 O2         11.1654   -9.3960    6.4059 O.2       1 <0>        -0.4527
     29 C22        10.6952   -8.2051    4.4054 C.3       1 <0>        -0.1620
     30 C23         9.6641   -7.0744    4.3143 C.3       1 <0>         0.0371
     31 H1         -0.9604    1.9042    0.0260 H         1 <0>         0.1266
     32 H2          1.1475    3.1726    0.0078 H         1 <0>         0.1282
     33 H3          3.3020    1.9860   -0.0192 H         1 <0>         0.1291
     34 H4          1.2180   -1.7604   -0.0194 H         1 <0>         0.1349
     35 H5         -0.9264   -0.5556    0.0083 H         1 <0>         0.1291
     36 H6          7.8124   -0.7360   -1.4376 H         1 <0>         0.4194
     37 H7          6.8412    0.5615   -1.8803 H         1 <0>         0.4210
     38 H8          6.9422   -4.7247    1.2623 H         1 <0>         0.1365
     39 H9          4.0354   -6.8506    3.5509 H         1 <0>         0.1427
     40 H10         2.3631   -5.1023    3.0782 H         1 <0>         0.1424
     41 H11         6.0891   -7.9214    2.8559 H         1 <0>         0.0949
     42 H12         7.3029   -7.0360    1.9014 H         1 <0>         0.0539
     43 H13         7.7505   -5.7194    3.8946 H         1 <0>         0.3388
     44 H14         8.1259   -7.6468    6.3698 H         1 <0>         0.0447
     45 H15         6.9442   -8.6612    5.5073 H         1 <0>         0.0952
     46 H16         8.7396   -9.9922    6.6907 H         1 <0>         0.0988
     47 H17         8.6865  -10.2837    4.9326 H         1 <0>         0.1091
     48 H18        11.6904   -7.7843    4.5491 H         1 <0>         0.0970
     49 H19        10.6742   -8.7964    3.4900 H         1 <0>         0.1094
     50 H20         9.8380   -6.4959    3.4070 H         1 <0>         0.0876
     51 H21         9.7596   -6.4244    5.1841 H         1 <0>         0.0493
@<TRIPOS>BOND
     1    1    6 ar
     2    1    2 ar
     3    1   31 1
     4    2    3 ar
     5    2   32 1
     6    3    4 ar
     7    3   33 1
     8    4    5 ar
     9    4    7 1
    10    5    6 ar
    11    5   34 1
    12    6   35 1
    13    7   12 ar
    14    7    8 ar
    15    8   20 1
    16    8    9 ar
    17    9   10 ar
    18    9   14 1
    19   10   11 ar
    20   11   12 ar
    21   11   13 1
    22   13   36 1
    23   13   37 1
    24   14   19 ar
    25   14   15 ar
    26   15   16 ar
    27   15   38 1
    28   16   17 ar
    29   16   22 1
    30   17   18 ar
    31   17   39 1
    32   18   19 ar
    33   18   40 1
    34   19   20 1
    35   20   21 2
    36   22   23 1
    37   22   41 1
    38   22   42 1
    39   23   24 1
    40   23   43 1
    41   24   30 1
    42   24   25 1
    43   25   26 1
    44   25   44 1
    45   25   45 1
    46   26   27 1
    47   26   46 1
    48   26   47 1
    49   27   28 2
    50   27   29 1
    51   29   30 1
    52   29   48 1
    53   29   49 1
    54   30   50 1
    55   30   51 1
@<TRIPOS>MOLECULE
CHEMBL367572
   45    48     0     0     0
SMALL
USER_CHARGES

@<TRIPOS>ATOM
      1 C1         -0.0162    1.3433    0.0094 C.2       1 <0>        -0.2181
      2 C2          1.3252    1.7744   -0.0011 C.2       1 <0>        -0.1378
      3 C3          2.0962    0.6548   -0.0144 C.2       1 <0>         0.0429
      4 O1          1.2797   -0.4166   -0.0124 O.3       1 <0>        -0.1540
      5 C4          0.0021   -0.0041    0.0020 C.2       1 <0>        -0.0060
      6 C5          3.5737    0.6193   -0.0287 C.2       1 <0>         0.3293
      7 N1          4.3193   -0.4866   -0.0471 N.2       1 <0>        -0.4939
      8 C6          5.6015   -0.1603   -0.0567 C.2       1 <0>         0.2074
      9 C7          6.7993   -0.9188   -0.0757 C.2       1 <0>         0.4821
     10 N2          7.9622   -0.3011   -0.0808 N.2       1 <0>        -0.5096
     11 C8          8.0347    1.0410   -0.0682 C.2       1 <0>         0.2328
     12 C9          6.9046    1.8048   -0.0497 C.2       1 <0>         0.0236
     13 N3          5.6823    1.2048   -0.0439 N.pl3     1 <0>        -0.2403
     14 N4          4.3660    1.6803   -0.0311 N.2       1 <0>        -0.2816
     15 C10         9.3170    1.6784   -0.0737 C.1       1 <0>        -0.1011
     16 C11        10.3683    2.2010   -0.0782 C.1       1 <0>        -0.1438
     17 C12        11.6864    2.8561   -0.0839 C.3       1 <0>         0.1941
     18 C13        11.5012    4.3748   -0.0672 C.3       1 <0>         0.1150
     19 C14        10.6073    4.7925   -1.2365 C.3       1 <0>        -0.1518
     20 C15        10.4220    6.3111   -1.2198 C.3       1 <0>        -0.1130
     21 C16        11.7855    6.9927   -1.3514 C.3       1 <0>        -0.1213
     22 C17        12.6794    6.5750   -0.1820 C.3       1 <0>        -0.1172
     23 C18        12.8647    5.0564   -0.1988 C.3       1 <0>        -0.1003
     24 O2         10.8896    4.7665    1.1635 O.3       1 <0>        -0.5433
     25 O3         12.4020    2.4765   -1.2612 O.3       1 <0>        -0.5355
     26 N5          6.7464   -2.3038   -0.0885 N.pl3     1 <0>        -0.8046
     27 H1         -0.8931    1.9736    0.0252 H         1 <0>         0.1599
     28 H2          1.6736    2.7966    0.0008 H         1 <0>         0.1604
     29 H3         -0.8667   -0.6456    0.0074 H         1 <0>         0.2145
     30 H4          6.9792    2.8822   -0.0394 H         1 <0>         0.1862
     31 H5         12.2487    2.5490    0.7979 H         1 <0>         0.1345
     32 H6         11.0737    4.4937   -2.1753 H         1 <0>         0.0717
     33 H7          9.6359    4.3069   -1.1428 H         1 <0>         0.0690
     34 H8          9.7852    6.6087   -2.0529 H         1 <0>         0.0616
     35 H9          9.9555    6.6099   -0.2811 H         1 <0>         0.0699
     36 H10        12.2520    6.6939   -2.2901 H         1 <0>         0.0605
     37 H11        11.6535    8.0746   -1.3394 H         1 <0>         0.0630
     38 H12        13.6508    7.0606   -0.2758 H         1 <0>         0.0635
     39 H13        12.2129    6.8738    0.7567 H         1 <0>         0.0717
     40 H14        13.5015    4.7588    0.6343 H         1 <0>         0.0728
     41 H15        13.3311    4.7576   -1.1375 H         1 <0>         0.0838
     42 H16        10.0200    4.3713    1.3138 H         1 <0>         0.3776
     43 H17        11.9592    2.7191   -2.0859 H         1 <0>         0.3807
     44 H18         5.8885   -2.7564   -0.0844 H         1 <0>         0.4250
     45 H19         7.5673   -2.8204   -0.1015 H         1 <0>         0.4198
@<TRIPOS>BOND
     1    1    5 2
     2    1    2 1
     3    1   27 1
     4    2    3 2
     5    2   28 1
     6    3    4 1
     7    3    6 1
     8    4    5 1
     9    5   29 1
    10    6   14 2
    11    6    7 1
    12    7    8 2
    13    8   13 1
    14    8    9 1
    15    9   10 2
    16    9   26 1
    17   10   11 1
    18   11   12 2
    19   11   15 1
    20   12   13 1
    21   12   30 1
    22   13   14 1
    23   15   16 3
    24   16   17 1
    25   17   18 1
    26   17   25 1
    27   17   31 1
    28   18   23 1
    29   18   19 1
    30   18   24 1
    31   19   20 1
    32   19   32 1
    33   19   33 1
    34   20   21 1
    35   20   34 1
    36   20   35 1
    37   21   22 1
    38   21   36 1
    39   21   37 1
    40   22   23 1
    41   22   38 1
    42   22   39 1
    43   23   40 1
    44   23   41 1
    45   24   42 1
    46   25   43 1
    47   26   44 1
    48   26   45 1
@<TRIPOS>MOLECULE
CHEMBL1095813
   59    63     0     0     0
SMALL
USER_CHARGES

@<TRIPOS>ATOM
      1 C1         -1.1568   -0.0928    7.7196 C.3       1 <0>        -0.1897
      2 C2          0.3331    0.2530    7.6805 C.3       1 <0>        -0.0108
      3 N1          0.9368   -0.3183    6.4692 N.4       1 <0>        -0.3855
      4 C3          0.8711   -1.7831    6.5358 C.3       1 <0>        -0.0078
      5 C4          1.4248   -2.3817    5.2409 C.3       1 <0>        -0.1616
      6 C5          2.8810   -1.9419    5.0636 C.3       1 <0>         0.1363
      7 C6          2.9463   -0.4119    5.0702 C.3       1 <0>        -0.1610
      8 C7          2.3362    0.1136    6.3713 C.3       1 <0>        -0.0031
      9 N2          3.3939   -2.4487    3.7883 N.pl3     1 <0>        -0.6192
     10 C8          2.6916   -2.1377    2.5408 C.3       1 <0>         0.0814
     11 C9          4.5468   -3.2244    3.7620 C.ar      1 <0>         0.2313
     12 C10         5.1029   -3.5969    2.5445 C.ar      1 <0>        -0.1808
     13 C11         6.2493   -4.3677    2.5114 C.ar      1 <0>         0.0037
     14 C12         6.8501   -4.7738    3.6989 C.ar      1 <0>        -0.1956
     15 C13         6.2909   -4.3993    4.9346 C.ar      1 <0>         0.0191
     16 C14         5.1453   -3.6219    4.9590 C.ar      1 <0>        -0.1501
     17 C15         7.1289   -4.9653    6.0222 C.ar      1 <0>         0.2953
     18 C16         8.1932   -5.6811    5.4388 C.ar      1 <0>        -0.3397
     19 C17         9.1227   -6.3079    6.2818 C.ar      1 <0>         0.3445
     20 N3          8.9607   -6.2005    7.6010 N.ar      1 <0>        -0.5658
     21 C18         7.9462   -5.5182    8.1079 C.ar      1 <0>         0.6009
     22 N4          7.0449   -4.9104    7.3428 N.ar      1 <0>        -0.5656
     23 N5          7.8197   -5.4347    9.4790 N.pl3     1 <0>        -0.8051
     24 C19        10.2593   -7.0730    5.7189 C.ar      1 <0>        -0.0865
     25 C20        10.1005   -7.7934    4.5352 C.ar      1 <0>        -0.0589
     26 C21        11.1632   -8.5038    4.0155 C.ar      1 <0>        -0.1268
     27 C22        12.3841   -8.5023    4.6660 C.ar      1 <0>        -0.0895
     28 C23        12.5477   -7.7900    5.8407 C.ar      1 <0>        -0.1331
     29 C24        11.4942   -7.0711    6.3672 C.ar      1 <0>        -0.0652
     30 C25         8.0570   -5.5870    3.9750 C.2       1 <0>         0.4631
     31 O1          8.7967   -6.0838    3.1483 O.2       1 <0>        -0.4127
     32 H1         -1.2783   -1.1760    7.7293 H         1 <0>         0.0805
     33 H2         -1.6047    0.3311    8.6184 H         1 <0>         0.1071
     34 H3         -1.6488    0.3202    6.8391 H         1 <0>         0.0805
     35 H4          0.4546    1.3361    7.6709 H         1 <0>         0.1314
     36 H5          0.8252   -0.1600    8.5611 H         1 <0>         0.1298
     37 H6          1.4633   -2.1349    7.3805 H         1 <0>         0.1318
     38 H7         -0.1655   -2.0944    6.6652 H         1 <0>         0.1367
     39 H8          1.3769   -3.4694    5.2931 H         1 <0>         0.1181
     40 H9          0.8331   -2.0307    4.3955 H         1 <0>         0.0937
     41 H10         3.4830   -2.3359    5.8824 H         1 <0>         0.1107
     42 H11         3.9858   -0.0917    5.0002 H         1 <0>         0.1173
     43 H12         2.3861   -0.0200    4.2212 H         1 <0>         0.0923
     44 H13         2.3812    1.2027    6.3794 H         1 <0>         0.1349
     45 H14         2.8972   -0.2786    7.2196 H         1 <0>         0.1314
     46 H15         3.0862   -1.2116    2.1228 H         1 <0>         0.0587
     47 H16         2.8392   -2.9496    1.8287 H         1 <0>         0.0814
     48 H17         1.6269   -2.0205    2.7427 H         1 <0>         0.0698
     49 H18         4.6379   -3.2834    1.6216 H         1 <0>         0.1403
     50 H19         6.6790   -4.6555    1.5633 H         1 <0>         0.1441
     51 H20         4.7126   -3.3268    5.9035 H         1 <0>         0.1342
     52 H21         8.4678   -5.8717   10.0533 H         1 <0>         0.4226
     53 H22         7.0826   -4.9390    9.8687 H         1 <0>         0.4174
     54 H23         9.1477   -7.7956    4.0267 H         1 <0>         0.1344
     55 H24        11.0414   -9.0623    3.0992 H         1 <0>         0.1300
     56 H25        13.2130   -9.0599    4.2554 H         1 <0>         0.1283
     57 H26        13.5031   -7.7930    6.3442 H         1 <0>         0.1297
     58 H27        11.6242   -6.5118    7.2819 H         1 <0>         0.1290
     59 H28         0.4293    0.0026    5.6583 H         1 <0>         0.4223
@<TRIPOS>BOND
     1    1    2 1
     2    1   32 1
     3    1   33 1
     4    1   34 1
     5    2    3 1
     6    2   35 1
     7    2   36 1
     8    3    8 1
     9    3    4 1
    10    3   59 1
    11    4    5 1
    12    4   37 1
    13    4   38 1
    14    5    6 1
    15    5   39 1
    16    5   40 1
    17    6    7 1
    18    6    9 1
    19    6   41 1
    20    7    8 1
    21    7   42 1
    22    7   43 1
    23    8   44 1
    24    8   45 1
    25    9   10 1
    26    9   11 1
    27   10   46 1
    28   10   47 1
    29   10   48 1
    30   11   16 ar
    31   11   12 ar
    32   12   13 ar
    33   12   49 1
    34   13   14 ar
    35   13   50 1
    36   14   30 1
    37   14   15 ar
    38   15   16 ar
    39   15   17 1
    40   16   51 1
    41   17   22 ar
    42   17   18 ar
    43   18   19 ar
    44   18   30 1
    45   19   20 ar
    46   19   24 1
    47   20   21 ar
    48   21   22 ar
    49   21   23 1
    50   23   52 1
    51   23   53 1
    52   24   29 ar
    53   24   25 ar
    54   25   26 ar
    55   25   54 1
    56   26   27 ar
    57   26   55 1
    58   27   28 ar
    59   27   56 1
    60   28   29 ar
    61   28   57 1
    62   29   58 1
    63   30   31 2
@<TRIPOS>MOLECULE
CHEMBL168334
   33    34     0     0     0
SMALL
USER_CHARGES

@<TRIPOS>ATOM
      1 C1          0.2622    1.4726    1.2301 C.ar      1 <0>        -0.1846
      2 C2          0.5725    0.2593    1.8225 C.ar      1 <0>        -0.1253
      3 C3          1.6840   -0.4458    1.4172 C.ar      1 <0>        -0.0998
      4 C4          2.5035    0.0689    0.4002 C.ar      1 <0>         0.0766
      5 C5          2.1804    1.2993   -0.1936 C.ar      1 <0>        -0.1732
      6 C6          1.0646    1.9890    0.2258 C.ar      1 <0>        -0.1246
      7 C7          3.6864   -0.6714   -0.0373 C.2       1 <0>        -0.4090
      8 C8          3.7138   -2.0547    0.0597 C.2       1 <0>         0.3894
      9 N1          4.8816   -2.6945    0.1452 N.pl3     1 <0>        -0.4991
     10 N2          4.9072   -3.9810    0.2354 N.2       1 <0>        -0.1735
     11 C9          6.0708   -4.6185    0.3205 C.2       1 <0>         0.0367
     12 C10         6.0986   -6.0177    0.4186 C.ar      1 <0>        -0.2233
     13 C11         7.3243   -6.7095    0.5156 C.ar      1 <0>         0.0090
     14 C12         7.3310   -8.0656    0.6099 C.ar      1 <0>        -0.2151
     15 C13         6.1480   -8.8012    0.6135 C.ar      1 <0>        -0.0070
     16 C14         4.9324   -8.1957    0.5224 C.ar      1 <0>        -0.2901
     17 C15         4.8509   -6.7950    0.4287 C.ar      1 <0>         0.3789
     18 O1          3.7659   -6.2360    0.3522 O.3       1 <0>        -0.4869
     19 N3          8.6253   -8.7771    0.7105 N.pl3     1 <0>         0.0884
     20 O2          9.6603   -8.1523    0.7082 O.2       1 <0>        -0.2609
     21 O3          8.6473   -9.9829    0.7949 O.3       1 <0>        -0.2618
     22 S1          2.2066   -2.9672    0.0700 S.3       1 <0>        -0.8196
     23 H1         -0.6136    2.0173    1.5504 H         1 <0>         0.0943
     24 H2         -0.0591   -0.1348    2.6049 H         1 <0>         0.0989
     25 H3          1.9245   -1.3913    1.8804 H         1 <0>         0.1299
     26 H4          2.8049    1.7037   -0.9765 H         1 <0>         0.0994
     27 H5          0.8142    2.9357   -0.2298 H         1 <0>         0.0955
     28 H6          4.5385   -0.1410   -0.4359 H         1 <0>         0.0920
     29 H7          6.9947   -4.0592    0.3142 H         1 <0>         0.0821
     30 H8          8.2556   -6.1627    0.5147 H         1 <0>         0.1132
     31 H9          6.1966   -9.8774    0.6900 H         1 <0>         0.1078
     32 H10         4.0309   -8.7903    0.5267 H         1 <0>         0.1132
     33 H11         5.7114   -2.1921    0.1395 H         1 <0>         0.3486
@<TRIPOS>BOND
     1    1    6 ar
     2    1    2 ar
     3    1   23 1
     4    2    3 ar
     5    2   24 1
     6    3    4 ar
     7    3   25 1
     8    4    5 ar
     9    4    7 1
    10    5    6 ar
    11    5   26 1
    12    6   27 1
    13    7    8 1
    14    7   28 1
    15    8    9 2
    16    8   22 1
    17    9   10 1
    18    9   33 1
    19   10   11 2
    20   11   12 1
    21   11   29 1
    22   12   17 ar
    23   12   13 ar
    24   13   14 ar
    25   13   30 1
    26   14   15 ar
    27   14   19 1
    28   15   16 ar
    29   15   31 1
    30   16   17 ar
    31   16   32 1
    32   17   18 1
    33   19   20 2
    34   19   21 1
@<TRIPOS>MOLECULE
CHEMBL260146
   39    42     0     0     0
SMALL
USER_CHARGES

@<TRIPOS>ATOM
      1 C1         -0.0167    1.3781    0.0096 C.ar      1 <0>        -0.1079
      2 C2          1.1709    2.0855    0.0021 C.ar      1 <0>        -0.1216
      3 C3          2.3773    1.4107   -0.0130 C.ar      1 <0>        -0.0970
      4 C4          2.3960    0.0285   -0.0201 C.ar      1 <0>        -0.1143
      5 C5          1.2084   -0.6789   -0.0117 C.ar      1 <0>        -0.0970
      6 C6          0.0021   -0.0041    0.0020 C.ar      1 <0>        -0.1216
      7 C7          3.7112   -0.7071   -0.0376 C.3       1 <0>         0.1751
      8 N1          4.1518   -0.9524    1.3379 N.am      1 <0>        -0.7137
      9 C8          5.3108   -1.6005    1.5688 C.2       1 <0>         0.7287
     10 O1          5.9902   -1.9814    0.6360 O.2       1 <0>        -0.5222
     11 N2          5.7161   -1.8261    2.8342 N.am      1 <0>        -0.3750
     12 C9          6.8703   -2.4651    3.2077 C.ar      1 <0>         0.4271
     13 C10         6.8834   -2.4739    4.6162 C.ar      1 <0>        -0.3142
     14 C11         5.7061   -1.8230    5.0454 C.2       1 <0>         0.1581
     15 N3          5.0346   -1.4433    3.9965 N.2       1 <0>        -0.2552
     16 C12         7.9776   -3.0792    5.2729 C.ar      1 <0>         0.3877
     17 N4          8.9460   -3.6135    4.5293 N.ar      1 <0>        -0.5618
     18 C13         8.8885   -3.5803    3.2053 C.ar      1 <0>         0.6210
     19 N5          7.8812   -3.0237    2.5509 N.ar      1 <0>        -0.5615
     20 N6          9.9202   -4.1495    2.4797 N.pl3     1 <0>        -0.8032
     21 C14         8.0468   -3.1185    6.7429 C.2       1 <0>        -0.0070
     22 C15         8.5730   -4.1277    7.4926 C.2       1 <0>        -0.1237
     23 C16         8.4302   -3.7483    8.8393 C.2       1 <0>        -0.2206
     24 C17         7.8307   -2.5394    8.8489 C.2       1 <0>        -0.0047
     25 O2          7.6062   -2.1600    7.5820 O.3       1 <0>        -0.1614
     26 H1         -0.9591    1.9053    0.0259 H         1 <0>         0.1248
     27 H2          1.1563    3.1654    0.0076 H         1 <0>         0.1257
     28 H3          3.3051    1.9634   -0.0196 H         1 <0>         0.1248
     29 H4          1.2231   -1.7588   -0.0176 H         1 <0>         0.1248
     30 H5         -0.9258   -0.5567    0.0082 H         1 <0>         0.1257
     31 H6          3.5884   -1.6586   -0.5549 H         1 <0>         0.0822
     32 H7          4.4573   -0.1052   -0.5563 H         1 <0>         0.0822
     33 H8          3.6095   -0.6484    2.0824 H         1 <0>         0.4126
     34 H9          5.4135   -1.6629    6.0726 H         1 <0>         0.2089
     35 H10        10.6670   -4.5627    2.9407 H         1 <0>         0.4211
     36 H11         9.8966   -4.1354    1.5101 H         1 <0>         0.4219
     37 H12         9.0137   -5.0422    7.1239 H         1 <0>         0.1590
     38 H13         8.7414   -4.3172    9.7029 H         1 <0>         0.1581
     39 H14         7.5777   -1.9694    9.7307 H         1 <0>         0.2139
@<TRIPOS>BOND
     1    1    6 ar
     2    1    2 ar
     3    1   26 1
     4    2    3 ar
     5    2   27 1
     6    3    4 ar
     7    3   28 1
     8    4    5 ar
     9    4    7 1
    10    5    6 ar
    11    5   29 1
    12    6   30 1
    13    7    8 1
    14    7   31 1
    15    7   32 1
    16    8    9 am
    17    8   33 1
    18    9   10 2
    19    9   11 am
    20   11   15 1
    21   11   12 1
    22   12   19 ar
    23   12   13 ar
    24   13   14 1
    25   13   16 ar
    26   14   15 2
    27   14   34 1
    28   16   17 ar
    29   16   21 1
    30   17   18 ar
    31   18   19 ar
    32   18   20 1
    33   20   35 1
    34   20   36 1
    35   21   25 1
    36   21   22 2
    37   22   23 1
    38   22   37 1
    39   23   24 2
    40   23   38 1
    41   24   25 1
    42   24   39 1
@<TRIPOS>MOLECULE
CHEMBL468256
   38    42     0     0     0
SMALL
USER_CHARGES

@<TRIPOS>ATOM
      1 C1         -0.0162    1.3451    0.0094 C.2       1 <0>        -0.2249
      2 C2          1.3225    1.7763   -0.0010 C.2       1 <0>        -0.1243
      3 C3          2.0959    0.6543   -0.0144 C.2       1 <0>        -0.0061
      4 O1          1.2782   -0.4173   -0.0124 O.3       1 <0>        -0.1487
      5 C4          0.0021   -0.0041    0.0020 C.2       1 <0>         0.0003
      6 C5          3.5677    0.6188   -0.0291 C.ar      1 <0>         0.4072
      7 C6          4.2734   -0.4010    0.6510 C.ar      1 <0>        -0.1546
      8 C7          5.6790   -0.3802    0.5989 C.ar      1 <0>         0.3613
      9 N1          6.2899    0.5856   -0.0804 N.ar      1 <0>        -0.5791
     10 C8          5.5905    1.5202   -0.7032 C.ar      1 <0>         0.6200
     11 N2          4.2647    1.5429   -0.6876 N.ar      1 <0>        -0.5510
     12 N3          6.2669    2.5076   -1.3991 N.pl3     1 <0>        -0.8044
     13 N4          6.0998   -1.4584    1.3276 N.pl3     1 <0>        -0.3778
     14 N5          4.9441   -2.0995    1.7988 N.2       1 <0>         0.0027
     15 N6          3.9043   -1.4608    1.3883 N.2       1 <0>        -0.1709
     16 C9          7.4865   -1.8648    1.5687 C.3       1 <0>         0.1818
     17 C10         7.9940   -1.2001    2.8224 C.ar      1 <0>        -0.1522
     18 C11         8.6088    0.0421    2.7427 C.ar      1 <0>        -0.0723
     19 C12         9.0801    0.6668    3.8764 C.ar      1 <0>        -0.1328
     20 C13         8.9395    0.0488    5.1149 C.ar      1 <0>         0.1062
     21 C14         8.3155   -1.2096    5.1903 C.ar      1 <0>        -0.1154
     22 C15         7.8405   -1.8224    4.0290 C.ar      1 <0>        -0.0346
     23 C16         8.3237   -1.5813    6.6072 C.2       1 <0>        -0.1991
     24 C17         8.9205   -0.5795    7.2722 C.2       1 <0>         0.0502
     25 N7          9.2951    0.4033    6.3970 N.pl3     1 <0>        -0.5958
     26 H1          9.7441    1.2272    6.6431 H         1 <0>         0.4168
     27 H2         -0.8933    1.9750    0.0252 H         1 <0>         0.1580
     28 H3          1.6703    2.7988    0.0008 H         1 <0>         0.1589
     29 H4         -0.8670   -0.6452    0.0072 H         1 <0>         0.2130
     30 H5          7.2366    2.5058   -1.4240 H         1 <0>         0.4201
     31 H6          5.7711    3.2012   -1.8618 H         1 <0>         0.4215
     32 H7          7.5325   -2.9473    1.6872 H         1 <0>         0.1129
     33 H8          8.1052   -1.5653    0.7227 H         1 <0>         0.1106
     34 H9          8.7189    0.5234    1.7822 H         1 <0>         0.1302
     35 H10         9.5575    1.6328    3.8039 H         1 <0>         0.1224
     36 H11         7.3570   -2.7866    4.0839 H         1 <0>         0.1280
     37 H12         7.9249   -2.4889    7.0356 H         1 <0>         0.1492
     38 H13         9.0814   -0.5532    8.3398 H         1 <0>         0.1728
@<TRIPOS>BOND
     1    1    5 2
     2    1    2 1
     3    1   27 1
     4    2    3 2
     5    2   28 1
     6    3    4 1
     7    3    6 1
     8    4    5 1
     9    5   29 1
    10    6   11 ar
    11    6    7 ar
    12    7   15 1
    13    7    8 ar
    14    8    9 ar
    15    8   13 1
    16    9   10 ar
    17   10   11 ar
    18   10   12 1
    19   12   30 1
    20   12   31 1
    21   13   14 1
    22   13   16 1
    23   14   15 2
    24   16   17 1
    25   16   32 1
    26   16   33 1
    27   17   22 ar
    28   17   18 ar
    29   18   19 ar
    30   18   34 1
    31   19   20 ar
    32   19   35 1
    33   20   25 1
    34   20   21 ar
    35   21   22 ar
    36   21   23 1
    37   22   36 1
    38   23   24 2
    39   23   37 1
    40   24   25 1
    41   24   38 1
    42   25   26 1
@<TRIPOS>MOLECULE
CHEMBL603781
   54    57     0     0     0
SMALL
USER_CHARGES

@<TRIPOS>ATOM
      1 C1         -0.0187    1.5258    0.0104 C.3       1 <0>        -0.1671
      2 C2          0.0021   -0.0041    0.0020 C.3       1 <0>         0.1128
      3 N1         -1.3723   -0.5112    0.0124 N.am      1 <0>        -0.7282
      4 C3         -1.6006   -1.8394    0.0075 C.2       1 <0>         0.4960
      5 O1         -0.6682   -2.6149   -0.0056 O.2       1 <0>        -0.5069
      6 C4         -3.0144   -2.3611    0.0182 C.3       1 <0>         0.0428
      7 H1         -3.5693   -1.9423   -0.8214 H         1 <0>         0.1290
      8 C5         -3.7041   -1.9776    1.3451 C.3       1 <0>         0.0518
      9 H2         -2.9665   -1.7866    2.1246 H         1 <0>         0.0964
     10 C6         -4.5311   -3.2521    1.6670 C.3       1 <0>         0.0776
     11 H3         -4.6779   -3.3642    2.7412 H         1 <0>         0.1031
     12 C7         -3.5965   -4.3569    1.1129 C.3       1 <0>         0.3197
     13 O2         -3.0056   -3.7907   -0.0698 O.3       1 <0>        -0.3322
     14 N2         -4.3702   -5.5529    0.7708 N.pl3     1 <0>        -0.4594
     15 C8         -4.8574   -5.8736   -0.4614 C.2       1 <0>         0.2915
     16 N3         -5.4969   -7.0060   -0.4063 N.2       1 <0>        -0.4642
     17 C9         -5.4615   -7.4834    0.8604 C.ar      1 <0>        -0.0938
     18 C10        -4.7327   -6.5595    1.6308 C.ar      1 <0>         0.3098
     19 N4         -4.5454   -6.7990    2.9224 N.ar      1 <0>        -0.5392
     20 C11        -5.0353   -7.8963    3.4830 C.ar      1 <0>         0.4931
     21 N5         -5.7270   -8.7977    2.7912 N.ar      1 <0>        -0.5707
     22 C12        -5.9674   -8.6313    1.4969 C.ar      1 <0>         0.5141
     23 N6         -6.6869   -9.5751    0.7848 N.pl3     1 <0>        -0.8135
     24 C13        -4.8118   -8.1187    4.8798 C.1       1 <0>        -0.0944
     25 C14        -4.6286   -8.3010    6.0250 C.1       1 <0>        -0.1208
     26 C15        -4.3989   -8.5296    7.4609 C.3       1 <0>         0.2433
     27 C16        -2.8880   -8.6707    7.7384 C.3       1 <0>        -0.1444
     28 C17        -2.8038   -9.7576    8.8388 C.3       1 <0>        -0.1219
     29 C18        -3.9138  -10.7537    8.4208 C.3       1 <0>        -0.1251
     30 C19        -5.0511   -9.8539    7.8948 C.3       1 <0>        -0.1106
     31 O3         -4.9380   -7.4463    8.2211 O.3       1 <0>        -0.5415
     32 O4         -5.7828   -3.2417    0.9776 O.3       1 <0>        -0.5333
     33 O5         -4.5567   -0.8449    1.1663 O.3       1 <0>        -0.5368
     34 H4          1.0039    1.9031    0.0027 H         1 <0>         0.0784
     35 H5         -0.5459    1.8868   -0.8726 H         1 <0>         0.0639
     36 H6         -0.5289    1.8773    0.9072 H         1 <0>         0.0631
     37 H7          0.5123   -0.3556   -0.8948 H         1 <0>         0.0719
     38 H8          0.5293   -0.3651    0.8851 H         1 <0>         0.0712
     39 H9         -2.1181    0.1091    0.0229 H         1 <0>         0.3972
     40 H10        -2.8246   -4.6006    1.8429 H         1 <0>         0.1316
     41 H11        -4.7318   -5.2758   -1.3520 H         1 <0>         0.2233
     42 H12        -6.8470   -9.4488   -0.1635 H         1 <0>         0.4216
     43 H13        -7.0310  -10.3630    1.2340 H         1 <0>         0.4122
     44 H14        -2.3638   -8.9962    6.8398 H         1 <0>         0.0798
     45 H15        -2.4770   -7.7285    8.1008 H         1 <0>         0.0804
     46 H16        -1.8272  -10.2415    8.8298 H         1 <0>         0.0729
     47 H17        -3.0162   -9.3318    9.8194 H         1 <0>         0.0749
     48 H18        -3.5554  -11.4156    7.6325 H         1 <0>         0.0706
     49 H19        -4.2515  -11.3316    9.2812 H         1 <0>         0.0749
     50 H20        -5.7783   -9.6705    8.6858 H         1 <0>         0.0885
     51 H21        -5.5378  -10.3274    7.0421 H         1 <0>         0.0809
     52 H22        -4.5587   -6.5844    8.0012 H         1 <0>         0.3820
     53 H23        -6.3572   -2.5014    1.2166 H         1 <0>         0.3958
     54 H24        -4.0940   -0.0456    0.8797 H         1 <0>         0.3880
@<TRIPOS>BOND
     1    1    2 1
     2    1   34 1
     3    1   35 1
     4    1   36 1
     5    2    3 1
     6    2   37 1
     7    2   38 1
     8    3    4 am
     9    3   39 1
    10    4    5 2
    11    4    6 1
    12    6    7 1
    13    6   13 1
    14    6    8 1
    15    8    9 1
    16    8   10 1
    17    8   33 1
    18   10   11 1
    19   10   12 1
    20   10   32 1
    21   12   13 1
    22   12   14 1
    23   12   40 1
    24   14   18 1
    25   14   15 1
    26   15   16 2
    27   15   41 1
    28   16   17 1
    29   17   22 ar
    30   17   18 ar
    31   18   19 ar
    32   19   20 ar
    33   20   21 ar
    34   20   24 1
    35   21   22 ar
    36   22   23 1
    37   23   42 1
    38   23   43 1
    39   24   25 3
    40   25   26 1
    41   26   30 1
    42   26   27 1
    43   26   31 1
    44   27   28 1
    45   27   44 1
    46   27   45 1
    47   28   29 1
    48   28   46 1
    49   28   47 1
    50   29   30 1
    51   29   48 1
    52   29   49 1
    53   30   50 1
    54   30   51 1
    55   31   52 1
    56   32   53 1
    57   33   54 1
@<TRIPOS>MOLECULE
CHEMBL136689
   48    52     0     0     0
SMALL
USER_CHARGES

@<TRIPOS>ATOM
      1 C1         -0.0173    1.4248    0.0099 C.3       1 <0>         0.0269
      2 O1          0.0021   -0.0041    0.0020 O.3       1 <0>        -0.3182
      3 C2          0.6258   -0.6184    1.0415 C.ar      1 <0>         0.1243
      4 C3          1.2022    0.1384    2.0513 C.ar      1 <0>        -0.2068
      5 C4          1.8353   -0.4884    3.1070 C.ar      1 <0>        -0.0750
      6 C5          1.8951   -1.8688    3.1577 C.ar      1 <0>        -0.1214
      7 C6          1.3218   -2.6253    2.1523 C.ar      1 <0>        -0.0748
      8 C7          0.6822   -2.0034    1.0976 C.ar      1 <0>        -0.1496
      9 C8          2.5867   -2.5500    4.3104 C.3       1 <0>        -0.0706
     10 C9          1.5771   -2.8076    5.4307 C.3       1 <0>        -0.1307
     11 C10         2.2793   -3.4992    6.6010 C.3       1 <0>         0.1366
     12 N1          1.3125   -3.7459    7.6738 N.pl3     1 <0>        -0.3534
     13 C11         1.0184   -2.8933    8.6954 C.2       1 <0>         0.3698
     14 C12         0.0463   -3.5315    9.4806 C.2       1 <0>        -0.2674
     15 C13        -0.2172   -4.7794    8.8878 C.2       1 <0>         0.1302
     16 N2          0.5272   -4.8958    7.8225 N.2       1 <0>        -0.2626
     17 C14        -0.4546   -2.8267   10.6611 C.2       1 <0>         0.4067
     18 N3         -1.3368   -3.1079   11.5974 N.2       1 <0>        -0.5163
     19 C15        -1.4144   -2.0890   12.4629 C.2       1 <0>         0.3505
     20 N4         -0.5791   -1.1375   12.0907 N.2       1 <0>        -0.3000
     21 N5          0.0588   -1.5837   10.9262 N.pl3     1 <0>        -0.3765
     22 C16         1.0032   -1.0458   10.1009 C.2       1 <0>         0.6913
     23 N6          1.4538   -1.6744    9.0431 N.2       1 <0>        -0.5609
     24 N7          1.5011    0.2031   10.3906 N.pl3     1 <0>        -0.8026
     25 C17        -2.2961   -2.0382   13.6479 C.2       1 <0>         0.0425
     26 C18        -2.3879   -1.0082   14.5304 C.2       1 <0>        -0.1373
     27 C19        -3.3441   -1.3838   15.4947 C.2       1 <0>        -0.2200
     28 C20        -3.7842   -2.6118   15.1567 C.2       1 <0>        -0.0041
     29 O2         -3.1527   -3.0019   14.0378 O.3       1 <0>        -0.1521
     30 H1          1.0053    1.8021    0.0021 H         1 <0>         0.0559
     31 H2         -0.5445    1.7859   -0.8732 H         1 <0>         0.1012
     32 H3         -0.5275    1.7763    0.9067 H         1 <0>         0.0554
     33 H4          1.1564    1.2167    2.0118 H         1 <0>         0.1276
     34 H5          2.2842    0.1003    3.8934 H         1 <0>         0.1242
     35 H6          1.3701   -3.7035    2.1940 H         1 <0>         0.1301
     36 H7          0.2307   -2.5948    0.3148 H         1 <0>         0.1312
     37 H8          3.0056   -3.4983    3.9736 H         1 <0>         0.0778
     38 H9          3.3874   -1.9109    4.6827 H         1 <0>         0.0761
     39 H10         1.1582   -1.8593    5.7675 H         1 <0>         0.0709
     40 H11         0.7764   -3.4467    5.0584 H         1 <0>         0.0759
     41 H12         2.6982   -4.4475    6.2643 H         1 <0>         0.1031
     42 H13         3.0799   -2.8601    6.9733 H         1 <0>         0.1002
     43 H14        -0.9200   -5.5149    9.2505 H         1 <0>         0.2021
     44 H15         1.1805    0.6844   11.1693 H         1 <0>         0.4262
     45 H16         2.1729    0.6026    9.8161 H         1 <0>         0.4302
     46 H17        -1.8346   -0.0812   14.4987 H         1 <0>         0.1599
     47 H18        -3.6636   -0.7985   16.3442 H         1 <0>         0.1594
     48 H19        -4.5248   -3.1853   15.6942 H         1 <0>         0.2142
@<TRIPOS>BOND
     1    1    2 1
     2    1   30 1
     3    1   31 1
     4    1   32 1
     5    2    3 1
     6    3    8 ar
     7    3    4 ar
     8    4    5 ar
     9    4   33 1
    10    5    6 ar
    11    5   34 1
    12    6    7 ar
    13    6    9 1
    14    7    8 ar
    15    7   35 1
    16    8   36 1
    17    9   10 1
    18    9   37 1
    19    9   38 1
    20   10   11 1
    21   10   39 1
    22   10   40 1
    23   11   12 1
    24   11   41 1
    25   11   42 1
    26   12   16 1
    27   12   13 1
    28   13   23 1
    29   13   14 2
    30   14   15 1
    31   14   17 1
    32   15   16 2
    33   15   43 1
    34   17   21 1
    35   17   18 2
    36   18   19 1
    37   19   20 2
    38   19   25 1
    39   20   21 1
    40   21   22 1
    41   22   23 2
    42   22   24 1
    43   24   44 1
    44   24   45 1
    45   25   29 1
    46   25   26 2
    47   26   27 1
    48   26   46 1
    49   27   28 2
    50   27   47 1
    51   28   29 1
    52   28   48 1
@<TRIPOS>MOLECULE
CHEMBL471974
   45    48     0     0     0
SMALL
USER_CHARGES

@<TRIPOS>ATOM
      1 C1         -0.0173    1.4248    0.0099 C.3       1 <0>         0.0270
      2 O1          0.0021   -0.0041    0.0020 O.3       1 <0>        -0.3188
      3 C2         -1.2003   -0.6375    0.0101 C.ar      1 <0>         0.1224
      4 C3         -2.3746    0.1011    0.0195 C.ar      1 <0>        -0.2067
      5 C4         -3.5956   -0.5451    0.0272 C.ar      1 <0>        -0.0760
      6 C5         -3.6478   -1.9268    0.0260 C.ar      1 <0>        -0.1205
      7 C6         -2.4788   -2.6651    0.0172 C.ar      1 <0>        -0.0764
      8 C7         -1.2554   -2.0237    0.0032 C.ar      1 <0>        -0.1501
      9 C8         -4.9811   -2.6292    0.0350 C.3       1 <0>        -0.0746
     10 C9         -5.4428   -2.8652   -1.4045 C.3       1 <0>        -0.1074
     11 C10        -6.7965   -3.5783   -1.3954 C.3       1 <0>        -0.0687
     12 C11        -7.2513   -3.8109   -2.8132 C.2       1 <0>         0.2107
     13 C12        -6.9967   -5.0045   -3.4170 C.2       1 <0>        -0.2226
     14 C13        -7.4326   -5.1967   -4.7433 C.2       1 <0>         0.3522
     15 N1         -7.3511   -6.2041   -5.5967 N.2       1 <0>        -0.5251
     16 C14        -7.9375   -5.8640   -6.7492 C.2       1 <0>         0.3531
     17 N2         -8.4053   -4.6322   -6.6552 N.2       1 <0>        -0.3227
     18 N3         -8.0949   -4.1726   -5.3697 N.pl3     1 <0>        -0.3613
     19 C15        -8.3144   -3.0054   -4.7048 C.2       1 <0>         0.6496
     20 N4         -7.9045   -2.8481   -3.4646 N.2       1 <0>        -0.5513
     21 N5         -8.9789   -1.9798   -5.3352 N.pl3     1 <0>        -0.8079
     22 C16        -8.0452   -6.7306   -7.9417 C.2       1 <0>         0.0364
     23 C17        -7.5738   -8.0010   -8.0499 C.2       1 <0>        -0.1268
     24 C18        -7.8937   -8.4434   -9.3488 C.2       1 <0>        -0.2189
     25 C19        -8.5379   -7.4315   -9.9629 C.2       1 <0>        -0.0079
     26 O2         -8.6328   -6.4006   -9.1081 O.3       1 <0>        -0.1609
     27 H1          1.0053    1.8021    0.0021 H         1 <0>         0.1007
     28 H2         -0.5445    1.7859   -0.8732 H         1 <0>         0.0553
     29 H3         -0.5275    1.7763    0.9067 H         1 <0>         0.0557
     30 H4         -2.3343    1.1803    0.0211 H         1 <0>         0.1271
     31 H5         -4.5101    0.0294    0.0345 H         1 <0>         0.1245
     32 H6         -2.5223   -3.7443    0.0166 H         1 <0>         0.1299
     33 H7         -0.3427   -2.6008   -0.0082 H         1 <0>         0.1303
     34 H8         -4.8840   -3.5865    0.5470 H         1 <0>         0.0756
     35 H9         -5.7136   -2.0117    0.5548 H         1 <0>         0.0745
     36 H10        -5.5399   -1.9079   -1.9165 H         1 <0>         0.0702
     37 H11        -4.7104   -3.4827   -1.9243 H         1 <0>         0.0687
     38 H12        -6.6994   -4.5356   -0.8833 H         1 <0>         0.0933
     39 H13        -7.5289   -2.9608   -0.8755 H         1 <0>         0.0926
     40 H14        -6.4714   -5.7876   -2.8905 H         1 <0>         0.1649
     41 H15        -9.2879   -2.0908   -6.2480 H         1 <0>         0.4238
     42 H16        -9.1387   -1.1454   -4.8672 H         1 <0>         0.4296
     43 H17        -7.0540   -8.5624   -7.2877 H         1 <0>         0.1631
     44 H18        -7.6657   -9.4104   -9.7721 H         1 <0>         0.1598
     45 H19        -8.9187   -7.4487  -10.9734 H         1 <0>         0.2134
@<TRIPOS>BOND
     1    1    2 1
     2    1   27 1
     3    1   28 1
     4    1   29 1
     5    2    3 1
     6    3    8 ar
     7    3    4 ar
     8    4    5 ar
     9    4   30 1
    10    5    6 ar
    11    5   31 1
    12    6    7 ar
    13    6    9 1
    14    7    8 ar
    15    7   32 1
    16    8   33 1
    17    9   10 1
    18    9   34 1
    19    9   35 1
    20   10   11 1
    21   10   36 1
    22   10   37 1
    23   11   12 1
    24   11   38 1
    25   11   39 1
    26   12   20 1
    27   12   13 2
    28   13   14 1
    29   13   40 1
    30   14   18 1
    31   14   15 2
    32   15   16 1
    33   16   17 2
    34   16   22 1
    35   17   18 1
    36   18   19 1
    37   19   20 2
    38   19   21 1
    39   21   41 1
    40   21   42 1
    41   22   26 1
    42   22   23 2
    43   23   24 1
    44   23   43 1
    45   24   25 2
    46   24   44 1
    47   25   26 1
    48   25   45 1
@<TRIPOS>MOLECULE
CHEMBL605878
   55    59     0     0     0
SMALL
USER_CHARGES

@<TRIPOS>ATOM
      1 C1         -0.0164    1.3567    0.0095 C.ar      1 <0>        -0.1160
      2 C2          1.1686    2.0905    0.0021 C.ar      1 <0>        -0.1163
      3 C3          2.3785    1.4675   -0.0131 C.ar      1 <0>        -0.1059
      4 C4          2.4375    0.0634   -0.0211 C.ar      1 <0>        -0.0505
      5 C5          3.6681   -0.6153   -0.0364 C.ar      1 <0>        -0.0969
      6 C6          3.6865   -1.9761   -0.0434 C.ar      1 <0>        -0.0780
      7 C7          2.5015   -2.7098   -0.0357 C.ar      1 <0>        -0.1079
      8 C8          1.2917   -2.0868   -0.0209 C.ar      1 <0>        -0.1033
      9 C9          1.2327   -0.6827   -0.0133 C.ar      1 <0>        -0.0522
     10 C10         0.0021   -0.0041    0.0020 C.ar      1 <0>        -0.1069
     11 C11         5.0079   -2.7004   -0.0602 C.3       1 <0>        -0.0821
     12 C12         5.4695   -2.9528    1.3765 C.3       1 <0>         0.0839
     13 O1          6.7225   -3.6396    1.3605 O.3       1 <0>        -0.2831
     14 C13         7.2739   -3.9414    2.5609 C.ar      1 <0>         0.5701
     15 N1          6.6298   -3.5939    3.6661 N.ar      1 <0>        -0.6303
     16 C14         7.1286   -3.8670    4.8666 C.ar      1 <0>         0.5426
     17 C15         8.3620   -4.5367    4.9451 C.ar      1 <0>        -0.1382
     18 C16         9.0073   -4.8846    3.7472 C.ar      1 <0>         0.3542
     19 N2          8.4323   -4.5763    2.5887 N.ar      1 <0>        -0.5528
     20 N3         10.1692   -5.5160    4.1126 N.pl3     1 <0>        -0.4689
     21 C17        10.2098   -5.5407    5.4759 C.2       1 <0>         0.2567
     22 N4          9.1488   -4.9658    5.9621 N.2       1 <0>        -0.4529
     23 C18        11.1804   -6.0639    3.2051 C.3       1 <0>         0.3156
     24 C19        10.8577   -7.5389    2.8549 C.3       1 <0>         0.0777
     25 H1         10.4493   -8.0634    3.7187 H         1 <0>         0.0908
     26 C20        12.2525   -8.0957    2.4793 C.3       1 <0>         0.0451
     27 H2         12.3822   -9.1014    2.8790 H         1 <0>         0.0878
     28 C21        13.2410   -7.1189    3.1453 C.3       1 <0>         0.0527
     29 H3         13.8421   -6.6229    2.3832 H         1 <0>         0.0990
     30 O2         12.4628   -6.1468    3.8633 O.3       1 <0>        -0.3481
     31 C22        14.1511   -7.8786    4.1125 C.3       1 <0>         0.0773
     32 O3         15.1381   -6.9881    4.6368 O.3       1 <0>        -0.5628
     33 O4         12.4253   -8.0965    1.0607 O.3       1 <0>        -0.5352
     34 O5          9.9615   -7.6150    1.7445 O.3       1 <0>        -0.5200
     35 N5          6.4491   -3.5000    6.0146 N.pl3     1 <0>        -0.8127
     36 H4         -0.9633    1.8757    0.0259 H         1 <0>         0.1233
     37 H5          1.1260    3.1696    0.0083 H         1 <0>         0.1234
     38 H6          3.2884    2.0491   -0.0194 H         1 <0>         0.1272
     39 H7          4.5943   -0.0599   -0.0428 H         1 <0>         0.1287
     40 H8          2.5441   -3.7890   -0.0419 H         1 <0>         0.1252
     41 H9          0.3816   -2.6684   -0.0154 H         1 <0>         0.1286
     42 H10        -0.9241   -0.5595    0.0082 H         1 <0>         0.1271
     43 H11         4.8935   -3.6529   -0.5777 H         1 <0>         0.0871
     44 H12         5.7491   -2.0921   -0.5784 H         1 <0>         0.0863
     45 H13         5.5838   -2.0003    1.8940 H         1 <0>         0.0726
     46 H14         4.7282   -3.5612    1.8947 H         1 <0>         0.0731
     47 H15        11.0051   -5.9736    6.0645 H         1 <0>         0.2234
     48 H16        11.2514   -5.4589    2.3012 H         1 <0>         0.1250
     49 H17        13.5550   -8.2828    4.9307 H         1 <0>         0.0591
     50 H18        14.6427   -8.6950    3.5834 H         1 <0>         0.0661
     51 H19        15.7513   -7.4029    5.2588 H         1 <0>         0.3859
     52 H20        13.2826   -8.4357    0.7691 H         1 <0>         0.3858
     53 H21         9.7296   -8.5179    1.4874 H         1 <0>         0.3869
     54 H22         5.5988   -3.0380    5.9482 H         1 <0>         0.4111
     55 H23         6.8231   -3.7047    6.8859 H         1 <0>         0.4216
@<TRIPOS>BOND
     1    1   10 ar
     2    1    2 ar
     3    1   36 1
     4    2    3 ar
     5    2   37 1
     6    3    4 ar
     7    3   38 1
     8    4    9 ar
     9    4    5 ar
    10    5    6 ar
    11    5   39 1
    12    6    7 ar
    13    6   11 1
    14    7    8 ar
    15    7   40 1
    16    8    9 ar
    17    8   41 1
    18    9   10 ar
    19   10   42 1
    20   11   12 1
    21   11   43 1
    22   11   44 1
    23   12   13 1
    24   12   45 1
    25   12   46 1
    26   13   14 1
    27   14   19 ar
    28   14   15 ar
    29   15   16 ar
    30   16   17 ar
    31   16   35 1
    32   17   22 1
    33   17   18 ar
    34   18   19 ar
    35   18   20 1
    36   20   21 1
    37   20   23 1
    38   21   22 2
    39   21   47 1
    40   23   30 1
    41   23   24 1
    42   23   48 1
    43   24   25 1
    44   24   26 1
    45   24   34 1
    46   26   27 1
    47   26   28 1
    48   26   33 1
    49   28   29 1
    50   28   30 1
    51   28   31 1
    52   31   32 1
    53   31   49 1
    54   31   50 1
    55   32   51 1
    56   33   52 1
    57   34   53 1
    58   35   54 1
    59   35   55 1
@<TRIPOS>MOLECULE
CHEMBL314313
   54    57     0     0     0
SMALL
USER_CHARGES

@<TRIPOS>ATOM
      1 C1         -0.0164    1.3602    0.0095 C.2       1 <0>         0.2655
      2 N1          1.2002    1.8207    0.0004 N.2       1 <0>        -0.4595
      3 C2          2.0747    0.7847   -0.0135 C.ar      1 <0>        -0.1498
      4 C3          3.4764    0.6773   -0.0279 C.ar      1 <0>         0.5423
      5 N2          4.0206   -0.5342   -0.0400 N.ar      1 <0>        -0.6256
      6 C4          3.2653   -1.6255   -0.0386 C.ar      1 <0>         0.6285
      7 N3          1.9436   -1.5695   -0.0253 N.ar      1 <0>        -0.6170
      8 C5          1.3163   -0.3973   -0.0126 C.ar      1 <0>         0.3550
      9 N4          0.0021   -0.0041    0.0020 N.pl3     1 <0>        -0.4672
     10 C6         -1.1670   -0.8870    0.0084 C.3       1 <0>         0.3163
     11 C7         -1.5283   -1.2880   -1.4379 C.3       1 <0>         0.0773
     12 H1         -1.1653   -2.2904   -1.6647 H         1 <0>         0.0966
     13 C8         -3.0808   -1.2554   -1.4109 C.3       1 <0>         0.0469
     14 H2         -3.4867   -2.1902   -1.0244 H         1 <0>         0.0923
     15 C9         -3.3333   -0.0871   -0.4249 C.3       1 <0>         0.0518
     16 H3         -3.2625    0.8685   -0.9445 H         1 <0>         0.0982
     17 O1         -2.2941   -0.1968    0.5607 O.3       1 <0>        -0.3466
     18 C10        -4.7078   -0.2333    0.2310 C.3       1 <0>         0.0780
     19 O2         -4.9708    0.9105    1.0462 O.3       1 <0>        -0.5625
     20 O3         -3.6124   -0.9626   -2.7046 O.3       1 <0>        -0.5429
     21 O4         -1.0118   -0.3388   -2.3730 O.3       1 <0>        -0.5327
     22 N5          3.8820   -2.8657   -0.0520 N.pl3     1 <0>        -0.6988
     23 C11         5.3441   -2.9566   -0.0674 C.3       1 <0>         0.1478
     24 C12         5.7635   -4.4279   -0.0802 C.3       1 <0>        -0.1005
     25 C13         7.2676   -4.5214   -0.0960 C.2       1 <0>        -0.1189
     26 C14         7.8783   -4.6703    1.0356 C.2       1 <0>        -0.1477
     27 C15         9.3689   -4.7678    1.1800 C.3       1 <0>        -0.0913
     28 C16        10.0092   -5.0926   -0.1713 C.3       1 <0>        -0.1219
     29 C17         9.4480   -4.1236   -1.2196 C.3       1 <0>        -0.1206
     30 C18         7.9636   -4.4421   -1.4231 C.3       1 <0>        -0.0836
     31 N6          4.2719    1.8093   -0.0299 N.pl3     1 <0>        -0.8175
     32 H4         -0.9091    1.9679    0.0254 H         1 <0>         0.2119
     33 H5         -0.9538   -1.7783    0.5984 H         1 <0>         0.1333
     34 H6         -5.4725   -0.3124   -0.5417 H         1 <0>         0.0631
     35 H7         -4.7217   -1.1310    0.8492 H         1 <0>         0.0587
     36 H8         -5.8274    0.8857    1.4941 H         1 <0>         0.3853
     37 H9         -4.5784   -0.9320   -2.7352 H         1 <0>         0.3898
     38 H10        -1.2125   -0.5466   -3.2958 H         1 <0>         0.3921
     39 H11         3.3458   -3.6740   -0.0513 H         1 <0>         0.4124
     40 H12         5.7296   -2.4611   -0.9585 H         1 <0>         0.0673
     41 H13         5.7477   -2.4714    0.8213 H         1 <0>         0.0671
     42 H14         5.3781   -4.9233    0.8109 H         1 <0>         0.0739
     43 H15         5.3600   -4.9131   -0.9689 H         1 <0>         0.0752
     44 H16         7.2779   -4.7275    1.9314 H         1 <0>         0.1031
     45 H17         9.7593   -3.8181    1.5459 H         1 <0>         0.0736
     46 H18         9.6120   -5.5550    1.8936 H         1 <0>         0.0706
     47 H19        11.0904   -4.9723   -0.1027 H         1 <0>         0.0645
     48 H20         9.7687   -6.1175   -0.4538 H         1 <0>         0.0636
     49 H21         9.5615   -3.0980   -0.8684 H         1 <0>         0.0655
     50 H22         9.9819   -4.2530   -2.1611 H         1 <0>         0.0651
     51 H23         7.8627   -5.3956   -1.9415 H         1 <0>         0.0728
     52 H24         7.5066   -3.6562   -2.0244 H         1 <0>         0.0717
     53 H25         3.8635    2.6891   -0.0213 H         1 <0>         0.4198
     54 H26         5.2381    1.7231   -0.0398 H         1 <0>         0.4082
@<TRIPOS>BOND
     1    1    9 1
     2    1    2 2
     3    1   32 1
     4    2    3 1
     5    3    8 ar
     6    3    4 ar
     7    4    5 ar
     8    4   31 1
     9    5    6 ar
    10    6    7 ar
    11    6   22 1
    12    7    8 ar
    13    8    9 1
    14    9   10 1
    15   10   17 1
    16   10   11 1
    17   10   33 1
    18   11   12 1
    19   11   13 1
    20   11   21 1
    21   13   14 1
    22   13   15 1
    23   13   20 1
    24   15   16 1
    25   15   17 1
    26   15   18 1
    27   18   19 1
    28   18   34 1
    29   18   35 1
    30   19   36 1
    31   20   37 1
    32   21   38 1
    33   22   23 1
    34   22   39 1
    35   23   24 1
    36   23   40 1
    37   23   41 1
    38   24   25 1
    39   24   42 1
    40   24   43 1
    41   25   30 1
    42   25   26 2
    43   26   27 1
    44   26   44 1
    45   27   28 1
    46   27   45 1
    47   27   46 1
    48   28   29 1
    49   28   47 1
    50   28   48 1
    51   29   30 1
    52   29   49 1
    53   29   50 1
    54   30   51 1
    55   30   52 1
    56   31   53 1
    57   31   54 1
@<TRIPOS>MOLECULE
CHEMBL196320
   48    51     0     0     0
SMALL
USER_CHARGES

@<TRIPOS>ATOM
      1 C1          1.6353    1.0089   -0.6622 C.3       1 <0>        -0.1685
      2 C2          0.9510   -0.1233    0.1064 C.3       1 <0>         0.1111
      3 N1          1.4103   -0.1166    1.4975 N.am      1 <0>        -0.6078
      4 C3          0.6913    0.6703    2.5025 C.3       1 <0>         0.0914
      5 C4         -0.5585   -0.0914    2.9482 C.3       1 <0>        -0.1820
      6 C5          2.4943   -0.8343    1.8527 C.2       1 <0>         0.5600
      7 O1          3.1218   -1.4451    1.0096 O.2       1 <0>        -0.5270
      8 C6          2.9203   -0.8789    3.2679 C.ar      1 <0>        -0.1350
      9 C7          1.9649   -0.9237    4.2855 C.ar      1 <0>        -0.0925
     10 C8          2.3620   -0.9647    5.6068 C.ar      1 <0>        -0.1243
     11 C9          3.7050   -0.9618    5.9308 C.ar      1 <0>        -0.0776
     12 C10         4.6687   -0.9173    4.9239 C.ar      1 <0>        -0.0459
     13 C11         4.2763   -0.8820    3.5895 C.ar      1 <0>        -0.0197
     14 C12         6.1102   -0.9133    5.2748 C.2       1 <0>         0.1767
     15 C13         6.4817   -0.9591    6.5841 C.2       1 <0>        -0.0056
     16 N2          7.8033   -0.9562    6.9138 N.pl3     1 <0>        -0.2344
     17 C14         8.7446   -0.9072    5.9230 C.2       1 <0>         0.2018
     18 C15         8.3165   -0.8599    4.5723 C.2       1 <0>         0.4820
     19 N3          7.0287   -0.8703    4.2963 N.2       1 <0>        -0.5144
     20 N4          9.2483   -0.8097    3.5475 N.pl3     1 <0>        -0.8061
     21 N5          9.9353   -0.9154    6.4998 N.2       1 <0>        -0.4968
     22 C16         9.7931   -0.9677    7.8249 C.2       1 <0>         0.3251
     23 N6          8.5036   -0.9943    8.1250 N.2       1 <0>        -0.2866
     24 C17        10.9000   -0.9926    8.8040 C.2       1 <0>         0.0462
     25 C18        10.7683   -1.0514   10.1557 C.2       1 <0>        -0.1406
     26 C19        12.0717   -1.0553   10.6908 C.2       1 <0>        -0.2179
     27 C20        12.9258   -0.9993    9.6500 C.2       1 <0>        -0.0082
     28 O2         12.2146   -0.9670    8.5116 O.3       1 <0>        -0.1543
     29 H1          2.7155    0.8650   -0.6355 H         1 <0>         0.0603
     30 H2          1.2936    1.0039   -1.6972 H         1 <0>         0.0677
     31 H3          1.3846    1.9643   -0.2013 H         1 <0>         0.0554
     32 H4         -0.1292    0.0205    0.0797 H         1 <0>         0.0788
     33 H5          1.2017   -1.0787   -0.3545 H         1 <0>         0.0849
     34 H6          1.3391    0.8403    3.3625 H         1 <0>         0.0918
     35 H7          0.3990    1.6284    2.0728 H         1 <0>         0.0802
     36 H8         -0.8873    0.2850    3.9168 H         1 <0>         0.0739
     37 H9         -1.3519    0.0515    2.2145 H         1 <0>         0.0650
     38 H10        -0.3268   -1.1533    3.0306 H         1 <0>         0.0670
     39 H11         0.9135   -0.9258    4.0383 H         1 <0>         0.1494
     40 H12         1.6199   -0.9989    6.3906 H         1 <0>         0.1374
     41 H13         4.0093   -0.9937    6.9665 H         1 <0>         0.1334
     42 H14         5.0194   -0.8520    2.8064 H         1 <0>         0.1467
     43 H15         5.7305   -0.9972    7.3591 H         1 <0>         0.1829
     44 H16        10.1962   -0.8069    3.7535 H         1 <0>         0.4239
     45 H17         8.9526   -0.7774    2.6242 H         1 <0>         0.4194
     46 H18         9.8433   -1.0877   10.7120 H         1 <0>         0.1598
     47 H19        12.3363   -1.0950   11.7371 H         1 <0>         0.1593
     48 H20        14.0035   -0.9863    9.7198 H         1 <0>         0.2138
@<TRIPOS>BOND
     1    1    2 1
     2    1   29 1
     3    1   30 1
     4    1   31 1
     5    2    3 1
     6    2   32 1
     7    2   33 1
     8    3    4 1
     9    3    6 am
    10    4    5 1
    11    4   34 1
    12    4   35 1
    13    5   36 1
    14    5   37 1
    15    5   38 1
    16    6    7 2
    17    6    8 1
    18    8   13 ar
    19    8    9 ar
    20    9   10 ar
    21    9   39 1
    22   10   11 ar
    23   10   40 1
    24   11   12 ar
    25   11   41 1
    26   12   13 ar
    27   12   14 1
    28   13   42 1
    29   14   19 1
    30   14   15 2
    31   15   16 1
    32   15   43 1
    33   16   23 1
    34   16   17 1
    35   17   18 1
    36   17   21 2
    37   18   19 2
    38   18   20 1
    39   20   44 1
    40   20   45 1
    41   21   22 1
    42   22   23 2
    43   22   24 1
    44   24   28 1
    45   24   25 2
    46   25   26 1
    47   25   46 1
    48   26   27 2
    49   26   47 1
    50   27   28 1
    51   27   48 1
@<TRIPOS>MOLECULE
CHEMBL521438
   55    60     0     0     0
SMALL
USER_CHARGES

@<TRIPOS>ATOM
      1 C1         -0.0173    1.4248    0.0099 C.3       1 <0>         0.0257
      2 O1          0.0021   -0.0041    0.0020 O.3       1 <0>        -0.3164
      3 C2          0.6257   -0.6182    1.0413 C.ar      1 <0>         0.1311
      4 C3          1.2017    0.1416    2.0504 C.ar      1 <0>        -0.2061
      5 C4          1.8353   -0.4790    3.1065 C.ar      1 <0>        -0.0677
      6 C5          1.8967   -1.8704    3.1603 C.ar      1 <0>        -0.0871
      7 C6          1.3171   -2.6305    2.1459 C.ar      1 <0>        -0.0687
      8 C7          0.6806   -2.0044    1.0948 C.ar      1 <0>        -0.1494
      9 C8          2.5780   -2.5410    4.2948 C.ar      1 <0>        -0.0340
     10 C9          3.1533   -1.7822    5.3123 C.ar      1 <0>        -0.1127
     11 C10         3.7854   -2.4114    6.3656 C.ar      1 <0>        -0.1058
     12 C11         3.8490   -3.7924    6.4121 C.ar      1 <0>        -0.0876
     13 C12         3.2801   -4.5505    5.4046 C.ar      1 <0>        -0.1056
     14 C13         2.6401   -3.9321    4.3498 C.ar      1 <0>        -0.1125
     15 C14         4.5411   -4.4735    7.5646 C.3       1 <0>        -0.0947
     16 C15         3.5305   -4.7368    8.6827 C.3       1 <0>         0.1440
     17 N1          4.2033   -5.3990    9.8030 N.pl3     1 <0>        -0.3546
     18 C16         4.3420   -6.7445    9.9688 C.2       1 <0>         0.3702
     19 C17         5.0465   -6.9284   11.1683 C.2       1 <0>        -0.2670
     20 C18         5.3140   -5.6526   11.6962 C.2       1 <0>         0.1310
     21 N2          4.8198   -4.7581   10.8849 N.2       1 <0>        -0.2629
     22 C19         5.3357   -8.2989   11.5920 C.2       1 <0>         0.4065
     23 N3          5.9538   -8.8335   12.6246 N.2       1 <0>        -0.5161
     24 C20         5.9337  -10.1683   12.5191 C.2       1 <0>         0.3505
     25 N4          5.2996  -10.5077   11.4125 N.2       1 <0>        -0.2997
     26 N5          4.8990   -9.3196   10.7881 N.pl3     1 <0>        -0.3764
     27 C21         4.2207   -9.0390    9.6377 C.2       1 <0>         0.6918
     28 N6          3.9600   -7.8130    9.2555 N.2       1 <0>        -0.5611
     29 N7          3.7940  -10.0825    8.8498 N.pl3     1 <0>        -0.8022
     30 C22         6.5278  -11.1124   13.4887 C.2       1 <0>         0.0423
     31 C23         6.5187  -12.4682   13.3902 C.2       1 <0>        -0.1372
     32 C24         7.1931  -12.9621   14.5245 C.2       1 <0>        -0.2200
     33 C25         7.5765  -11.8944   15.2517 C.2       1 <0>        -0.0041
     34 O2          7.1773  -10.7786   14.6206 O.3       1 <0>        -0.1521
     35 H1          1.0053    1.8021    0.0021 H         1 <0>         0.0569
     36 H2         -0.5445    1.7859   -0.8732 H         1 <0>         0.1021
     37 H3         -0.5275    1.7763    0.9067 H         1 <0>         0.0569
     38 H4          1.1538    1.2197    2.0082 H         1 <0>         0.1311
     39 H5          2.2838    0.1126    3.8908 H         1 <0>         0.1289
     40 H6          1.3634   -3.7088    2.1848 H         1 <0>         0.1332
     41 H7          0.2280   -2.5930    0.3105 H         1 <0>         0.1340
     42 H8          3.1048   -0.7039    5.2766 H         1 <0>         0.1257
     43 H9          4.2316   -1.8243    7.1547 H         1 <0>         0.1261
     44 H10         3.3333   -5.6284    5.4457 H         1 <0>         0.1255
     45 H11         2.1920   -4.5250    3.5662 H         1 <0>         0.1263
     46 H12         4.9637   -5.4197    7.2266 H         1 <0>         0.0799
     47 H13         5.3390   -3.8325    7.9394 H         1 <0>         0.0840
     48 H14         3.1079   -3.7906    9.0207 H         1 <0>         0.1036
     49 H15         2.7326   -5.3779    8.3079 H         1 <0>         0.1016
     50 H16         5.8427   -5.4478   12.6155 H         1 <0>         0.2024
     51 H17         3.9769  -10.9972    9.1157 H         1 <0>         0.4264
     52 H18         3.3103   -9.9037    8.0283 H         1 <0>         0.4303
     53 H19         6.0792  -13.0536   12.5961 H         1 <0>         0.1599
     54 H20         7.3691  -14.0000   14.7656 H         1 <0>         0.1594
     55 H21         8.1184  -11.9302   16.1853 H         1 <0>         0.2142
@<TRIPOS>BOND
     1    1    2 1
     2    1   35 1
     3    1   36 1
     4    1   37 1
     5    2    3 1
     6    3    8 ar
     7    3    4 ar
     8    4    5 ar
     9    4   38 1
    10    5    6 ar
    11    5   39 1
    12    6    7 ar
    13    6    9 1
    14    7    8 ar
    15    7   40 1
    16    8   41 1
    17    9   14 ar
    18    9   10 ar
    19   10   11 ar
    20   10   42 1
    21   11   12 ar
    22   11   43 1
    23   12   13 ar
    24   12   15 1
    25   13   14 ar
    26   13   44 1
    27   14   45 1
    28   15   16 1
    29   15   46 1
    30   15   47 1
    31   16   17 1
    32   16   48 1
    33   16   49 1
    34   17   21 1
    35   17   18 1
    36   18   28 1
    37   18   19 2
    38   19   20 1
    39   19   22 1
    40   20   21 2
    41   20   50 1
    42   22   26 1
    43   22   23 2
    44   23   24 1
    45   24   25 2
    46   24   30 1
    47   25   26 1
    48   26   27 1
    49   27   28 2
    50   27   29 1
    51   29   51 1
    52   29   52 1
    53   30   34 1
    54   30   31 2
    55   31   32 1
    56   31   53 1
    57   32   33 2
    58   32   54 1
    59   33   34 1
    60   33   55 1
@<TRIPOS>MOLECULE
CHEMBL481146
   63    68     0     0     0
SMALL
USER_CHARGES

@<TRIPOS>ATOM
      1 C1         -0.0187    1.5258    0.0104 C.3       1 <0>        -0.1689
      2 C2          0.0021   -0.0041    0.0020 C.3       1 <0>         0.1379
      3 C3         -1.4117   -0.5257    0.0127 C.ar      1 <0>         0.1618
      4 C4         -1.8142   -1.4144   -0.9820 C.ar      1 <0>        -0.1613
      5 C5         -3.0917   -1.8975   -0.9881 C.ar      1 <0>        -0.0552
      6 C6         -3.9677   -1.4716    0.0282 C.ar      1 <0>        -0.0991
      7 C7         -5.2951   -1.9258    0.0871 C.ar      1 <0>        -0.0873
      8 C8         -6.1113   -1.4909    1.0861 C.ar      1 <0>        -0.0798
      9 C9         -5.6469   -0.6002    2.0521 C.ar      1 <0>        -0.0944
     10 C10        -4.3668   -0.1396    2.0250 C.ar      1 <0>        -0.0852
     11 C11        -3.4933   -0.5661    1.0092 C.ar      1 <0>         0.1292
     12 N1         -2.2286   -0.1354    0.9607 N.ar      1 <0>        -0.4456
     13 C12        -7.5358   -1.9787    1.1479 C.3       1 <0>        -0.0961
     14 C13        -7.6023   -3.2534    1.9915 C.3       1 <0>         0.1434
     15 N2         -8.9871   -3.7275    2.0516 N.pl3     1 <0>        -0.3550
     16 C14        -9.9126   -3.3735    2.9871 C.2       1 <0>         0.3708
     17 C15       -11.0925   -4.0595    2.6611 C.2       1 <0>        -0.2671
     18 C16       -10.8281   -4.8227    1.5098 C.2       1 <0>         0.1315
     19 N3         -9.5895   -4.6179    1.1541 N.2       1 <0>        -0.2632
     20 C17       -12.2628   -3.8581    3.5160 C.2       1 <0>         0.4065
     21 N4        -13.4958   -4.3208    3.5150 N.2       1 <0>        -0.5161
     22 C18       -14.1720   -3.8013    4.5475 C.2       1 <0>         0.3506
     23 N5        -13.3774   -2.9955    5.2266 N.2       1 <0>        -0.2996
     24 N6        -12.1326   -3.0096    4.5846 N.pl3     1 <0>        -0.3763
     25 C19       -10.9412   -2.3869    4.8196 C.2       1 <0>         0.6922
     26 N7         -9.8913   -2.5651    4.0560 N.2       1 <0>        -0.5612
     27 N8        -10.8384   -1.5407    5.8989 N.pl3     1 <0>        -0.8020
     28 C20       -15.5849   -4.0855    4.8750 C.2       1 <0>         0.0424
     29 C21       -16.2835   -3.5607    5.9164 C.2       1 <0>        -0.1372
     30 C22       -17.5829   -4.1013    5.8469 C.2       1 <0>        -0.2199
     31 C23       -17.6128   -4.9209    4.7777 C.2       1 <0>        -0.0041
     32 O1        -16.4056   -4.9050    4.1900 O.3       1 <0>        -0.1522
     33 O2          0.6932   -0.4774    1.1597 O.3       1 <0>        -0.3601
     34 C24         2.0985   -0.6511    0.9672 C.3       1 <0>         0.0608
     35 C25         2.7322   -1.1581    2.2642 C.3       1 <0>         0.0625
     36 O3          2.2277   -2.4612    2.5632 O.3       1 <0>        -0.3842
     37 C26         2.7589   -3.0292    3.7621 C.3       1 <0>         0.0309
     38 H1          1.0039    1.9031    0.0027 H         1 <0>         0.0618
     39 H2         -0.5459    1.8868   -0.8726 H         1 <0>         0.0647
     40 H3         -0.5289    1.8773    0.9072 H         1 <0>         0.0763
     41 H4          0.5123   -0.3556   -0.8948 H         1 <0>         0.0769
     42 H5         -1.1168   -1.7207   -1.7476 H         1 <0>         0.1382
     43 H6         -3.4208   -2.5867   -1.7517 H         1 <0>         0.1423
     44 H7         -5.6665   -2.6159   -0.6561 H         1 <0>         0.1328
     45 H8         -6.3139   -0.2699    2.8346 H         1 <0>         0.1320
     46 H9         -4.0230    0.5509    2.7809 H         1 <0>         0.1376
     47 H10        -8.1635   -1.2107    1.6000 H         1 <0>         0.0829
     48 H11        -7.8912   -2.1913    0.1397 H         1 <0>         0.0860
     49 H12        -6.9746   -4.0214    1.5395 H         1 <0>         0.1040
     50 H13        -7.2470   -3.0408    2.9998 H         1 <0>         0.1027
     51 H14       -11.5323   -5.4661    1.0033 H         1 <0>         0.2025
     52 H15       -11.6043   -1.3958    6.4763 H         1 <0>         0.4264
     53 H16       -10.0001   -1.0887    6.0827 H         1 <0>         0.4306
     54 H17       -15.9140   -2.8643    6.6545 H         1 <0>         0.1599
     55 H18       -18.4001   -3.8976    6.5230 H         1 <0>         0.1594
     56 H19       -18.4670   -5.4924    4.4461 H         1 <0>         0.2142
     57 H20         2.2694   -1.3764    0.1716 H         1 <0>         0.0593
     58 H21         2.5481    0.3029    0.6919 H         1 <0>         0.0669
     59 H22         3.8146   -1.2060    2.1453 H         1 <0>         0.0651
     60 H23         2.4860   -0.4774    3.0792 H         1 <0>         0.0591
     61 H24         2.5132   -2.3873    4.6081 H         1 <0>         0.0419
     62 H25         2.3267   -4.0176    3.9184 H         1 <0>         0.0861
     63 H26         3.8419   -3.1159    3.6742 H         1 <0>         0.0408
@<TRIPOS>BOND
     1    1    2 1
     2    1   38 1
     3    1   39 1
     4    1   40 1
     5    2    3 1
     6    2   33 1
     7    2   41 1
     8    3   12 ar
     9    3    4 ar
    10    4    5 ar
    11    4   42 1
    12    5    6 ar
    13    5   43 1
    14    6   11 ar
    15    6    7 ar
    16    7    8 ar
    17    7   44 1
    18    8    9 ar
    19    8   13 1
    20    9   10 ar
    21    9   45 1
    22   10   11 ar
    23   10   46 1
    24   11   12 ar
    25   13   14 1
    26   13   47 1
    27   13   48 1
    28   14   15 1
    29   14   49 1
    30   14   50 1
    31   15   19 1
    32   15   16 1
    33   16   26 1
    34   16   17 2
    35   17   18 1
    36   17   20 1
    37   18   19 2
    38   18   51 1
    39   20   24 1
    40   20   21 2
    41   21   22 1
    42   22   23 2
    43   22   28 1
    44   23   24 1
    45   24   25 1
    46   25   26 2
    47   25   27 1
    48   27   52 1
    49   27   53 1
    50   28   32 1
    51   28   29 2
    52   29   30 1
    53   29   54 1
    54   30   31 2
    55   30   55 1
    56   31   32 1
    57   31   56 1
    58   33   34 1
    59   34   35 1
    60   34   57 1
    61   34   58 1
    62   35   36 1
    63   35   59 1
    64   35   60 1
    65   36   37 1
    66   37   61 1
    67   37   62 1
    68   37   63 1
@<TRIPOS>MOLECULE
CHEMBL513030
   49    54     0     0     0
SMALL
USER_CHARGES

@<TRIPOS>ATOM
      1 C1         -0.0162    1.3433    0.0094 C.2       1 <0>        -0.2205
      2 C2          1.3252    1.7744   -0.0011 C.2       1 <0>        -0.1271
      3 C3          2.0962    0.6548   -0.0144 C.2       1 <0>         0.0271
      4 O1          1.2797   -0.4166   -0.0124 O.3       1 <0>        -0.1521
      5 C4          0.0021   -0.0041    0.0020 C.2       1 <0>         0.0056
      6 C5          3.5736    0.6193   -0.0287 C.2       1 <0>         0.3639
      7 N1          4.3223   -0.4908   -0.0472 N.2       1 <0>        -0.5057
      8 C6          5.5979   -0.1638   -0.0558 C.2       1 <0>         0.4001
      9 C7          6.8494   -0.9218   -0.0750 C.2       1 <0>        -0.2576
     10 C8          7.1770   -2.2895   -0.0925 C.2       1 <0>         0.1546
     11 N2          8.4769   -2.4024   -0.1057 N.2       1 <0>        -0.2685
     12 N3          9.0564   -1.1275   -0.0976 N.pl3     1 <0>        -0.3754
     13 C9          8.0548   -0.2036   -0.0786 C.2       1 <0>         0.3754
     14 N4          8.0263    1.1363   -0.0638 N.2       1 <0>        -0.5800
     15 C10         6.9037    1.8122   -0.0459 C.2       1 <0>         0.7061
     16 N5          5.6820    1.2042   -0.0426 N.pl3     1 <0>        -0.3788
     17 N6          4.3634    1.6766   -0.0311 N.2       1 <0>        -0.2937
     18 N7          6.9590    3.1863   -0.0316 N.pl3     1 <0>        -0.7944
     19 C11        10.4923   -0.8370   -0.1068 C.3       1 <0>         0.1241
     20 C12        10.9797   -0.7205   -1.5524 C.3       1 <0>        -0.0296
     21 N8         12.4195   -0.4292   -1.5616 N.4       1 <0>        -0.3816
     22 C13        12.8674   -0.2074   -2.9448 C.3       1 <0>        -0.0008
     23 C14        14.2762    0.3888   -2.9153 C.3       1 <0>        -0.1002
     24 C15        15.1631   -0.4516   -2.0355 C.ar      1 <0>         0.1811
     25 C16        14.6352   -1.3591   -1.1394 C.ar      1 <0>        -0.2509
     26 C17        15.5084   -2.0996   -0.3554 C.ar      1 <0>         0.1920
     27 N9         16.8113   -1.9143   -0.4933 N.ar      1 <0>        -0.5038
     28 C18        17.2799   -1.0402   -1.3611 C.ar      1 <0>         0.3324
     29 N10        16.4793   -0.3196   -2.1201 N.ar      1 <0>        -0.5047
     30 C19        13.1535   -1.5660   -0.9958 C.3       1 <0>         0.0514
     31 H1         -0.8931    1.9736    0.0252 H         1 <0>         0.1624
     32 H2          1.6736    2.7966    0.0006 H         1 <0>         0.1610
     33 H3         -0.8667   -0.6456    0.0076 H         1 <0>         0.2174
     34 H4          6.4721   -3.1077   -0.0946 H         1 <0>         0.2096
     35 H5          7.8178    3.6373   -0.0348 H         1 <0>         0.4313
     36 H6          6.1392    3.7046   -0.0183 H         1 <0>         0.4315
     37 H7         10.6764    0.1019    0.4155 H         1 <0>         0.1188
     38 H8         11.0292   -1.6426    0.3939 H         1 <0>         0.1215
     39 H9         10.7956   -1.6593   -2.0747 H         1 <0>         0.1448
     40 H10        10.4428    0.0852   -2.0531 H         1 <0>         0.1424
     41 H11        12.8833   -1.1565   -3.4806 H         1 <0>         0.1390
     42 H12        12.1880    0.4846   -3.4425 H         1 <0>         0.1480
     43 H13        14.6827    0.4093   -3.9264 H         1 <0>         0.1423
     44 H14        14.2322    1.4043   -2.5218 H         1 <0>         0.1214
     45 H15        15.1299   -2.8170    0.3576 H         1 <0>         0.1829
     46 H16        18.3482   -0.9107   -1.4523 H         1 <0>         0.2131
     47 H17        12.9044   -1.6659    0.0606 H         1 <0>         0.1464
     48 H18        12.8646   -2.4777   -1.5188 H         1 <0>         0.1490
     49 H19        12.6002    0.3967   -1.0109 H         1 <0>         0.4289
@<TRIPOS>BOND
     1    1    5 2
     2    1    2 1
     3    1   31 1
     4    2    3 2
     5    2   32 1
     6    3    4 1
     7    3    6 1
     8    4    5 1
     9    5   33 1
    10    6   17 2
    11    6    7 1
    12    7    8 2
    13    8   16 1
    14    8    9 1
    15    9   13 2
    16    9   10 1
    17   10   11 2
    18   10   34 1
    19   11   12 1
    20   12   13 1
    21   12   19 1
    22   13   14 1
    23   14   15 2
    24   15   16 1
    25   15   18 1
    26   16   17 1
    27   18   35 1
    28   18   36 1
    29   19   20 1
    30   19   37 1
    31   19   38 1
    32   20   21 1
    33   20   39 1
    34   20   40 1
    35   21   30 1
    36   21   22 1
    37   21   49 1
    38   22   23 1
    39   22   41 1
    40   22   42 1
    41   23   24 1
    42   23   43 1
    43   23   44 1
    44   24   29 ar
    45   24   25 ar
    46   25   26 ar
    47   25   30 1
    48   26   27 ar
    49   26   45 1
    50   27   28 ar
    51   28   29 ar
    52   28   46 1
    53   30   47 1
    54   30   48 1
@<TRIPOS>MOLECULE
CHEMBL610426
   51    54     0     0     0
SMALL
USER_CHARGES

@<TRIPOS>ATOM
      1 C1         -0.0187    1.5258    0.0104 C.3       1 <0>        -0.1670
      2 C2          0.0021   -0.0041    0.0020 C.3       1 <0>         0.1127
      3 N1          0.6878   -0.4765   -1.2033 N.am      1 <0>        -0.7284
      4 C3          0.8268   -1.7986   -1.4250 C.2       1 <0>         0.4959
      5 O1          0.3843   -2.5972   -0.6267 O.2       1 <0>        -0.5069
      6 C4          1.5322   -2.2846   -2.6649 C.3       1 <0>         0.0430
      7 H1          2.5301   -1.8492   -2.7172 H         1 <0>         0.1281
      8 C5          0.7217   -1.8886   -3.9178 C.3       1 <0>         0.0515
      9 H2         -0.3249   -1.7189   -3.6651 H         1 <0>         0.0961
     10 C6          0.8760   -3.1431   -4.8202 C.3       1 <0>         0.0783
     11 H3          0.0208   -3.2552   -5.4867 H         1 <0>         0.1030
     12 C7          0.9061   -4.2690   -3.7562 C.3       1 <0>         0.3206
     13 O2          1.6263   -3.7137   -2.6418 O.3       1 <0>        -0.3330
     14 N2          1.6076   -5.4441   -4.2789 N.pl3     1 <0>        -0.4614
     15 C8          2.9232   -5.7479   -4.0909 C.2       1 <0>         0.2854
     16 N3          3.2123   -6.8641   -4.6944 N.2       1 <0>        -0.4667
     17 C9          2.1040   -7.3462   -5.3062 C.ar      1 <0>        -0.0992
     18 C10         1.0597   -6.4437   -5.0424 C.ar      1 <0>         0.3070
     19 N4         -0.1498   -6.6941   -5.5328 N.ar      1 <0>        -0.5624
     20 C11        -0.3712   -7.7731   -6.2538 C.ar      1 <0>         0.3633
     21 N5          0.5770   -8.6511   -6.5252 N.ar      1 <0>        -0.5884
     22 C12         1.8195   -8.4806   -6.0850 C.ar      1 <0>         0.5064
     23 N6          2.8063   -9.4069   -6.3737 N.pl3     1 <0>        -0.6912
     24 C13         2.4909  -10.5837   -7.1874 C.3       1 <0>         0.1708
     25 C14         3.7292  -11.4264   -7.3530 C.ar      1 <0>        -0.1070
     26 C15         4.5825  -11.1995   -8.4170 C.ar      1 <0>        -0.0825
     27 C16         5.7184  -11.9721   -8.5694 C.ar      1 <0>        -0.1143
     28 C17         6.0017  -12.9722   -7.6581 C.ar      1 <0>        -0.0812
     29 C18         5.1487  -13.1992   -6.5934 C.ar      1 <0>        -0.0932
     30 C19         4.0146  -12.4222   -6.4382 C.ar      1 <0>        -0.0696
     31 Br1         5.5355  -14.5675   -5.3467 Br        1 <0>        -0.0455
     32 O3          2.0984   -3.0988   -5.5591 O.3       1 <0>        -0.5332
     33 O4          1.2850   -0.7342   -4.5440 O.3       1 <0>        -0.5373
     34 H4          1.0039    1.9031    0.0027 H         1 <0>         0.0638
     35 H5         -0.5459    1.8868   -0.8726 H         1 <0>         0.0631
     36 H6         -0.5289    1.8773    0.9072 H         1 <0>         0.0783
     37 H7          0.5293   -0.3651    0.8851 H         1 <0>         0.0717
     38 H8         -1.0205   -0.3814    0.0098 H         1 <0>         0.0712
     39 H9          1.0417    0.1622   -1.8418 H         1 <0>         0.3971
     40 H10        -0.1080   -4.5346   -3.4576 H         1 <0>         0.1308
     41 H11         3.6224   -5.1503   -3.5250 H         1 <0>         0.2196
     42 H12        -1.3657   -7.9468   -6.6374 H         1 <0>         0.2045
     43 H13         3.7068   -9.2771   -6.0373 H         1 <0>         0.4195
     44 H14         1.7159  -11.1698   -6.6935 H         1 <0>         0.0825
     45 H15         2.1356  -10.2635   -8.1668 H         1 <0>         0.0835
     46 H16         4.3612  -10.4185   -9.1294 H         1 <0>         0.1322
     47 H17         6.3844  -11.7947   -9.4009 H         1 <0>         0.1356
     48 H18         6.8889  -13.5763   -7.7776 H         1 <0>         0.1351
     49 H19         3.3502  -12.5966   -5.6049 H         1 <0>         0.1351
     50 H20         2.1670   -2.3453   -6.1612 H         1 <0>         0.3949
     51 H21         1.2895    0.0542   -3.9840 H         1 <0>         0.3877
@<TRIPOS>BOND
     1    1    2 1
     2    1   34 1
     3    1   35 1
     4    1   36 1
     5    2    3 1
     6    2   37 1
     7    2   38 1
     8    3    4 am
     9    3   39 1
    10    4    5 2
    11    4    6 1
    12    6    7 1
    13    6   13 1
    14    6    8 1
    15    8    9 1
    16    8   10 1
    17    8   33 1
    18   10   11 1
    19   10   12 1
    20   10   32 1
    21   12   13 1
    22   12   14 1
    23   12   40 1
    24   14   18 1
    25   14   15 1
    26   15   16 2
    27   15   41 1
    28   16   17 1
    29   17   22 ar
    30   17   18 ar
    31   18   19 ar
    32   19   20 ar
    33   20   21 ar
    34   20   42 1
    35   21   22 ar
    36   22   23 1
    37   23   24 1
    38   23   43 1
    39   24   25 1
    40   24   44 1
    41   24   45 1
    42   25   30 ar
    43   25   26 ar
    44   26   27 ar
    45   26   46 1
    46   27   28 ar
    47   27   47 1
    48   28   29 ar
    49   28   48 1
    50   29   30 ar
    51   29   31 1
    52   30   49 1
    53   32   50 1
    54   33   51 1
@<TRIPOS>MOLECULE
CHEMBL246263
   51    56     0     0     0
SMALL
USER_CHARGES

@<TRIPOS>ATOM
      1 C1         -0.0162    1.3433    0.0094 C.2       1 <0>        -0.2201
      2 C2          1.3252    1.7743   -0.0011 C.2       1 <0>        -0.1373
      3 C3          2.0962    0.6548   -0.0144 C.2       1 <0>         0.0430
      4 O1          1.2797   -0.4166   -0.0124 O.3       1 <0>        -0.1516
      5 C4          0.0021   -0.0041    0.0020 C.2       1 <0>        -0.0040
      6 C5          3.5737    0.6193   -0.0292 C.2       1 <0>         0.3457
      7 N1          4.3216   -0.4904   -0.0476 N.2       1 <0>        -0.4996
      8 C6          5.5988   -0.1630   -0.0576 C.2       1 <0>         0.3975
      9 C7          6.8477   -0.9205   -0.0777 C.2       1 <0>        -0.0261
     10 C8          8.0482   -0.2033   -0.0831 C.2       1 <0>         0.2909
     11 N2          8.0241    1.1346   -0.0704 N.2       1 <0>        -0.5428
     12 C9          6.9027    1.8137   -0.0530 C.2       1 <0>         0.6710
     13 N3          5.6823    1.2057   -0.0451 N.pl3     1 <0>        -0.3631
     14 N4          4.3634    1.6772   -0.0320 N.2       1 <0>        -0.2949
     15 N5          6.9595    3.1893   -0.0404 N.pl3     1 <0>        -0.8062
     16 N6          9.0487   -1.1423   -0.1025 N.pl3     1 <0>        -0.4511
     17 C10         8.4571   -2.3702   -0.1084 C.2       1 <0>         0.2293
     18 N7          7.1617   -2.2351   -0.0938 N.2       1 <0>        -0.4312
     19 C11        10.4889   -0.8741   -0.1146 C.3       1 <0>         0.1124
     20 C12        10.9820   -0.6711    1.3194 C.3       1 <0>         0.0418
     21 N8         12.4261   -0.4022    1.3072 N.3       1 <0>        -0.5319
     22 C13        13.1758   -1.5738    0.8348 C.3       1 <0>         0.0327
     23 C14        14.6514   -1.1972    0.6643 C.3       1 <0>         0.1348
     24 N9         15.1345   -0.6174    1.9267 N.pl3     1 <0>        -0.5715
     25 C15        14.3563    0.4726    2.5347 C.3       1 <0>         0.1318
     26 C16        12.8923    0.0302    2.6315 C.3       1 <0>         0.0430
     27 C17        16.2922   -1.0861    2.5279 C.2       1 <0>         0.3235
     28 N10        17.0988   -2.0409    2.1158 N.2       1 <0>        -0.5955
     29 C18        18.1734   -2.3724    2.8097 C.2       1 <0>         0.0813
     30 C19        18.4020   -1.6876    3.9559 C.2       1 <0>        -0.2740
     31 S1         17.0117   -0.5675    3.9582 S.3       1 <0>         0.0658
     32 H1         -0.8931    1.9736    0.0252 H         1 <0>         0.1595
     33 H2          1.6736    2.7966    0.0011 H         1 <0>         0.1602
     34 H3         -0.8667   -0.6456    0.0072 H         1 <0>         0.2141
     35 H4          7.8188    3.6393   -0.0444 H         1 <0>         0.4293
     36 H5          6.1402    3.7084   -0.0274 H         1 <0>         0.4255
     37 H6          8.9832   -3.3133   -0.1235 H         1 <0>         0.2272
     38 H7         11.0121   -1.7190   -0.5626 H         1 <0>         0.1030
     39 H8         10.6860    0.0257   -0.6974 H         1 <0>         0.1092
     40 H9         10.4589    0.1737    1.7674 H         1 <0>         0.0879
     41 H10        10.7849   -1.5709    1.9022 H         1 <0>         0.0463
     42 H11        13.0880   -2.3799    1.5633 H         1 <0>         0.0454
     43 H12        12.7714   -1.9026   -0.1225 H         1 <0>         0.0932
     44 H13        15.2315   -2.0885    0.4251 H         1 <0>         0.0996
     45 H14        14.7522   -0.4652   -0.1370 H         1 <0>         0.0781
     46 H15        14.7412    0.6853    3.5320 H         1 <0>         0.0870
     47 H16        14.4287    1.3650    1.9131 H         1 <0>         0.0872
     48 H17        12.2823    0.8647    2.9772 H         1 <0>         0.0958
     49 H18        12.8084   -0.7982    3.3350 H         1 <0>         0.0453
     50 H19        18.8396   -3.1550    2.4780 H         1 <0>         0.1704
     51 H20        19.2060   -1.7888    4.6699 H         1 <0>         0.1923
@<TRIPOS>BOND
     1    1    5 2
     2    1    2 1
     3    1   32 1
     4    2    3 2
     5    2   33 1
     6    3    4 1
     7    3    6 1
     8    4    5 1
     9    5   34 1
    10    6   14 2
    11    6    7 1
    12    7    8 2
    13    8   13 1
    14    8    9 1
    15    9   18 1
    16    9   10 2
    17   10   11 1
    18   10   16 1
    19   11   12 2
    20   12   13 1
    21   12   15 1
    22   13   14 1
    23   15   35 1
    24   15   36 1
    25   16   17 1
    26   16   19 1
    27   17   18 2
    28   17   37 1
    29   19   20 1
    30   19   38 1
    31   19   39 1
    32   20   21 1
    33   20   40 1
    34   20   41 1
    35   21   26 1
    36   21   22 1
    37   22   23 1
    38   22   42 1
    39   22   43 1
    40   23   24 1
    41   23   44 1
    42   23   45 1
    43   24   25 1
    44   24   27 1
    45   25   26 1
    46   25   46 1
    47   25   47 1
    48   26   48 1
    49   26   49 1
    50   27   31 1
    51   27   28 2
    52   28   29 1
    53   29   30 2
    54   29   50 1
    55   30   31 1
    56   30   51 1
@<TRIPOS>MOLECULE
CHEMBL449596
   33    36     0     0     0
SMALL
USER_CHARGES

@<TRIPOS>ATOM
      1 C1         -0.0167    1.3776    0.0096 C.ar      1 <0>        -0.1768
      2 C2          1.1849    2.0698    0.0019 C.ar      1 <0>        -0.0462
      3 C3          2.3651    1.3426   -0.0133 C.ar      1 <0>        -0.1801
      4 C4          2.3054   -0.0383   -0.0202 C.ar      1 <0>         0.1304
      5 N1          1.1443   -0.6632   -0.0129 N.ar      1 <0>        -0.4848
      6 C5          0.0021   -0.0041    0.0020 C.ar      1 <0>         0.1126
      7 C6          3.6964    2.0488   -0.0227 C.3       1 <0>         0.1831
      8 N2          4.1412    2.2707    1.3554 N.pl3     1 <0>        -0.3833
      9 C7          3.8711    3.3607    2.1360 C.ar      1 <0>         0.3617
     10 C8          4.5052    3.1221    3.3691 C.ar      1 <0>        -0.1549
     11 C9          4.3867    4.1050    4.3788 C.ar      1 <0>         0.4101
     12 N3          3.6835    5.2050    4.1151 N.ar      1 <0>        -0.5505
     13 C10         3.1044    5.3825    2.9357 C.ar      1 <0>         0.6222
     14 N4          3.1901    4.4890    1.9632 N.ar      1 <0>        -0.5822
     15 N5          2.3847    6.5441    2.7134 N.pl3     1 <0>        -0.8028
     16 C11         5.0258    3.9166    5.6917 C.2       1 <0>        -0.0091
     17 C12         5.5706    4.8978    6.4648 C.2       1 <0>        -0.1217
     18 C13         6.0641    4.2726    7.6240 C.2       1 <0>        -0.2249
     19 C14         5.8008    2.9545    7.5060 C.2       1 <0>         0.0022
     20 O1          5.1690    2.7443    6.3414 O.3       1 <0>        -0.1492
     21 N6          5.1189    1.9302    3.2925 N.2       1 <0>        -0.1658
     22 N7          4.9226    1.4037    2.1342 N.2       1 <0>         0.0029
     23 H1         -0.9552    1.9117    0.0259 H         1 <0>         0.1393
     24 H2          1.2009    3.1496    0.0072 H         1 <0>         0.1395
     25 H3          3.2203   -0.6121   -0.0320 H         1 <0>         0.1604
     26 H4         -0.9294   -0.5505    0.0083 H         1 <0>         0.1600
     27 H5          4.4293    1.4355   -0.5468 H         1 <0>         0.1190
     28 H6          3.5953    3.0079   -0.5308 H         1 <0>         0.1142
     29 H7          2.3111    7.2106    3.4143 H         1 <0>         0.4224
     30 H8          1.9542    6.6915    1.8568 H         1 <0>         0.4205
     31 H9          5.6147    5.9516    6.2323 H         1 <0>         0.1596
     32 H10         6.5603    4.7563    8.4524 H         1 <0>         0.1588
     33 H11         6.0528    2.1950    8.2313 H         1 <0>         0.2136
@<TRIPOS>BOND
     1    1    6 ar
     2    1    2 ar
     3    1   23 1
     4    2    3 ar
     5    2   24 1
     6    3    4 ar
     7    3    7 1
     8    4    5 ar
     9    4   25 1
    10    5    6 ar
    11    6   26 1
    12    7    8 1
    13    7   27 1
    14    7   28 1
    15    8   22 1
    16    8    9 1
    17    9   14 ar
    18    9   10 ar
    19   10   11 ar
    20   10   21 1
    21   11   12 ar
    22   11   16 1
    23   12   13 ar
    24   13   14 ar
    25   13   15 1
    26   15   29 1
    27   15   30 1
    28   16   20 1
    29   16   17 2
    30   17   18 1
    31   17   31 1
    32   18   19 2
    33   18   32 1
    34   19   20 1
    35   19   33 1
    36   21   22 2
@<TRIPOS>MOLECULE
CHEMBL252345
   44    47     0     0     0
SMALL
USER_CHARGES

@<TRIPOS>ATOM
      1 C1         -0.0161    1.3438    0.0066 C.2       1 <0>        -0.2250
      2 C2          1.3237    1.7749   -0.0031 C.2       1 <0>        -0.1139
      3 C3          2.0958    0.6545   -0.0180 C.2       1 <0>         0.0106
      4 O1          1.2788   -0.4172   -0.0175 O.3       1 <0>        -0.1543
      5 C4          0.0024   -0.0047   -0.0027 C.2       1 <0>        -0.0053
      6 C5          3.5708    0.6192   -0.0329 C.ar      1 <0>         0.4652
      7 N1          4.2462    1.7631   -0.0269 N.ar      1 <0>        -0.5057
      8 C6          5.5743    1.7677   -0.0400 C.ar      1 <0>         0.4404
      9 C7          6.2570    0.5530   -0.0602 C.ar      1 <0>        -0.2658
     10 C8          5.5166   -0.6244   -0.0659 C.ar      1 <0>         0.4530
     11 N2          4.1902   -0.5554   -0.0466 N.ar      1 <0>        -0.5532
     12 N3          6.1596   -1.8636   -0.0860 N.pl3     1 <0>        -0.3329
     13 C9          5.5539   -3.0800   -0.0990 C.2       1 <0>         0.0841
     14 C10         6.5254   -4.0207   -0.1178 C.2       1 <0>        -0.2572
     15 C11         7.7620   -3.3645   -0.1162 C.2       1 <0>         0.0757
     16 N4          7.5444   -2.0749   -0.1026 N.2       1 <0>        -0.2832
     17 N5          6.2747    2.9695   -0.0340 N.am      1 <0>        -0.6540
     18 C12         5.6085    4.1381   -0.1178 C.2       1 <0>         0.5048
     19 O2          4.3959    4.1470   -0.1054 O.2       1 <0>        -0.4399
     20 C13         6.3705    5.4337   -0.2268 C.3       1 <0>         0.0388
     21 N6          5.4233    6.5539   -0.3038 N.3       1 <0>        -0.5204
     22 C14         4.6496    6.5047   -1.5528 C.3       1 <0>         0.0110
     23 C15         3.6362    7.6522   -1.5646 C.3       1 <0>         0.0659
     24 O3          4.3277    8.8938   -1.4046 O.3       1 <0>        -0.3859
     25 C16         5.0912    8.9763   -0.1981 C.3       1 <0>         0.0639
     26 C17         6.1192    7.8422   -0.1725 C.3       1 <0>         0.0183
     27 H1         -0.8931    1.9738    0.0232 H         1 <0>         0.1580
     28 H2          1.6717    2.7973   -0.0001 H         1 <0>         0.1668
     29 H3         -0.8665   -0.6462    0.0015 H         1 <0>         0.2122
     30 H4          7.3366    0.5265   -0.0714 H         1 <0>         0.1639
     31 H5          4.4894   -3.2625   -0.0946 H         1 <0>         0.1866
     32 H6          6.3739   -5.0899   -0.1315 H         1 <0>         0.1619
     33 H7          8.7307   -3.8419   -0.1281 H         1 <0>         0.1985
     34 H8          7.2425    2.9664    0.0305 H         1 <0>         0.4247
     35 H9          7.0071    5.5556    0.6496 H         1 <0>         0.1129
     36 H10         6.9879    5.4175   -1.1249 H         1 <0>         0.0728
     37 H11         5.3241    6.6060   -2.4031 H         1 <0>         0.0404
     38 H12         4.1223    5.5529   -1.6171 H         1 <0>         0.1039
     39 H13         3.0995    7.6542   -2.5133 H         1 <0>         0.0994
     40 H14         2.9288    7.5215   -0.7458 H         1 <0>         0.0635
     41 H15         5.6067    9.9359   -0.1585 H         1 <0>         0.1009
     42 H16         4.4260    8.8841    0.6605 H         1 <0>         0.0621
     43 H17         6.6648    7.8667    0.7709 H         1 <0>         0.0897
     44 H18         6.8172    7.9649   -1.0006 H         1 <0>         0.0469
@<TRIPOS>BOND
     1    1    5 2
     2    1    2 1
     3    1   27 1
     4    2    3 2
     5    2   28 1
     6    3    4 1
     7    3    6 1
     8    4    5 1
     9    5   29 1
    10    6   11 ar
    11    6    7 ar
    12    7    8 ar
    13    8    9 ar
    14    8   17 1
    15    9   10 ar
    16    9   30 1
    17   10   11 ar
    18   10   12 1
    19   12   16 1
    20   12   13 1
    21   13   14 2
    22   13   31 1
    23   14   15 1
    24   14   32 1
    25   15   16 2
    26   15   33 1
    27   17   18 am
    28   17   34 1
    29   18   19 2
    30   18   20 1
    31   20   21 1
    32   20   35 1
    33   20   36 1
    34   21   26 1
    35   21   22 1
    36   22   23 1
    37   22   37 1
    38   22   38 1
    39   23   24 1
    40   23   39 1
    41   23   40 1
    42   24   25 1
    43   25   26 1
    44   25   41 1
    45   25   42 1
    46   26   43 1
    47   26   44 1
@<TRIPOS>MOLECULE
CHEMBL609816
   53    56     0     0     0
SMALL
USER_CHARGES

@<TRIPOS>ATOM
      1 C1         -0.0171    1.4074    0.0098 C.ar      1 <0>        -0.1224
      2 C2          1.1593    2.1000    0.0023 C.ar      1 <0>        -0.0404
      3 C3          2.3707    1.4222   -0.0129 C.ar      1 <0>        -0.0252
      4 C4          2.4030    0.0344   -0.0212 C.ar      1 <0>        -0.0377
      5 C5          1.2405   -0.6813   -0.0144 C.ar      1 <0>        -0.1303
      6 C6          0.0021   -0.0041    0.0020 C.ar      1 <0>         0.0299
      7 C7         -1.2046   -0.7307    0.0101 C.2       1 <0>        -0.1434
      8 C8         -1.1788   -2.1366    0.0023 C.2       1 <0>        -0.0256
      9 C9         -2.3604   -2.8480    0.0102 C.2       1 <0>        -0.0051
     10 N1         -2.3358   -4.1872    0.0028 N.2       1 <0>        -0.1671
     11 N2         -3.4409   -4.8526    0.0102 N.pl3     1 <0>        -0.4616
     12 C10        -3.4157   -6.2267    0.0026 C.ar      1 <0>         0.6178
     13 N3         -2.2388   -6.8461   -0.0070 N.ar      1 <0>        -0.5839
     14 C11        -2.1601   -8.1687   -0.0141 C.ar      1 <0>         0.5354
     15 C12        -3.3606   -8.9152   -0.0115 C.ar      1 <0>        -0.1163
     16 C13        -4.5852   -8.2097   -0.0012 C.ar      1 <0>         0.3357
     17 N4         -4.5669   -6.8878    0.0105 N.ar      1 <0>        -0.5923
     18 N5         -5.5706   -9.1681   -0.0004 N.pl3     1 <0>        -0.4578
     19 C14        -4.9539  -10.3807   -0.0097 C.2       1 <0>         0.2738
     20 N6         -3.6574  -10.2235   -0.0161 N.2       1 <0>        -0.4606
     21 C15        -7.0158   -8.9283    0.0093 C.3       1 <0>         0.3140
     22 C16        -7.5050   -8.7354    1.4607 C.3       1 <0>         0.0765
     23 H1         -7.6459   -7.6781    1.6853 H         1 <0>         0.0975
     24 C17        -8.8654   -9.4846    1.4524 C.3       1 <0>         0.0476
     25 H2         -9.6632   -8.8462    1.0729 H         1 <0>         0.0933
     26 C18        -8.5586  -10.6403    0.4670 C.3       1 <0>         0.0511
     27 H3         -8.0465  -11.4521    0.9836 H         1 <0>         0.0995
     28 O1         -7.7005  -10.0646   -0.5308 O.3       1 <0>        -0.3450
     29 C19        -9.8516  -11.1508   -0.1719 C.3       1 <0>         0.0779
     30 O2         -9.5635  -12.2891   -0.9863 O.3       1 <0>        -0.5627
     31 O3         -9.1853   -9.9858    2.7518 O.3       1 <0>        -0.5425
     32 O4         -6.5962   -9.3331    2.3874 O.3       1 <0>        -0.5341
     33 N7         -0.9331   -8.8036   -0.0245 N.pl3     1 <0>        -0.8098
     34 N8          3.6390    2.1859   -0.0209 N.pl3     1 <0>        -0.0151
     35 O5          3.6148    3.5026   -0.0136 O.2       1 <0>        -0.1791
     36 O6          4.7913    1.5485   -0.0354 O.3       1 <0>        -0.1783
     37 H4         -0.9582    1.9370    0.0261 H         1 <0>         0.1514
     38 H5          1.1475    3.1799    0.0078 H         1 <0>         0.1547
     39 H6          3.3518   -0.4813   -0.0333 H         1 <0>         0.1549
     40 H7          1.2682   -1.7610   -0.0211 H         1 <0>         0.1525
     41 H8         -2.1496   -0.2080    0.0223 H         1 <0>         0.1350
     42 H9         -0.2338   -2.6593   -0.0099 H         1 <0>         0.1337
     43 H10        -3.3054   -2.3253    0.0224 H         1 <0>         0.1200
     44 H11        -4.2897   -4.3832    0.0211 H         1 <0>         0.4018
     45 H12        -5.4621  -11.3337   -0.0111 H         1 <0>         0.2167
     46 H13        -7.2474   -8.0419   -0.5813 H         1 <0>         0.1356
     47 H14       -10.5567  -11.4327    0.6101 H         1 <0>         0.0642
     48 H15       -10.2876  -10.3643   -0.7879 H         1 <0>         0.0590
     49 H16       -10.3390  -12.6662   -1.4238 H         1 <0>         0.3863
     50 H17       -10.0264  -10.4610    2.7940 H         1 <0>         0.3911
     51 H18        -6.8596   -9.2388    3.3131 H         1 <0>         0.3942
     52 H19        -0.1163   -8.2804   -0.0265 H         1 <0>         0.4124
     53 H20        -0.8884   -9.7726   -0.0296 H         1 <0>         0.4224
@<TRIPOS>BOND
     1    1    6 ar
     2    1    2 ar
     3    1   37 1
     4    2    3 ar
     5    2   38 1
     6    3    4 ar
     7    3   34 1
     8    4    5 ar
     9    4   39 1
    10    5    6 ar
    11    5   40 1
    12    6    7 1
    13    7    8 2
    14    7   41 1
    15    8    9 1
    16    8   42 1
    17    9   10 2
    18    9   43 1
    19   10   11 1
    20   11   12 1
    21   11   44 1
    22   12   17 ar
    23   12   13 ar
    24   13   14 ar
    25   14   15 ar
    26   14   33 1
    27   15   20 1
    28   15   16 ar
    29   16   17 ar
    30   16   18 1
    31   18   19 1
    32   18   21 1
    33   19   20 2
    34   19   45 1
    35   21   28 1
    36   21   22 1
    37   21   46 1
    38   22   23 1
    39   22   24 1
    40   22   32 1
    41   24   25 1
    42   24   26 1
    43   24   31 1
    44   26   27 1
    45   26   28 1
    46   26   29 1
    47   29   30 1
    48   29   47 1
    49   29   48 1
    50   30   49 1
    51   31   50 1
    52   32   51 1
    53   33   52 1
    54   33   53 1
    55   34   35 2
    56   34   36 1
@<TRIPOS>MOLECULE
CHEMBL603813
   59    62     0     0     0
SMALL
USER_CHARGES

@<TRIPOS>ATOM
      1 C1         -0.0187    1.5258    0.0104 C.3       1 <0>        -0.1670
      2 C2          0.0021   -0.0041    0.0020 C.3       1 <0>         0.1127
      3 N1          0.6878   -0.4765   -1.2033 N.am      1 <0>        -0.7283
      4 C3          0.8268   -1.7986   -1.4250 C.2       1 <0>         0.4960
      5 O1          0.3843   -2.5972   -0.6267 O.2       1 <0>        -0.5067
      6 C4          1.5322   -2.2846   -2.6649 C.3       1 <0>         0.0429
      7 H1          2.5301   -1.8492   -2.7172 H         1 <0>         0.1288
      8 C5          0.7217   -1.8886   -3.9178 C.3       1 <0>         0.0517
      9 H2         -0.3249   -1.7189   -3.6651 H         1 <0>         0.0963
     10 C6          0.8760   -3.1431   -4.8202 C.3       1 <0>         0.0777
     11 H3          0.0208   -3.2552   -5.4867 H         1 <0>         0.1031
     12 C7          0.9061   -4.2690   -3.7562 C.3       1 <0>         0.3200
     13 O2          1.6263   -3.7137   -2.6418 O.3       1 <0>        -0.3324
     14 N2          1.6076   -5.4441   -4.2789 N.pl3     1 <0>        -0.4599
     15 C8          2.9233   -5.7482   -4.0911 C.2       1 <0>         0.2897
     16 N3          3.2128   -6.8643   -4.6950 N.2       1 <0>        -0.4644
     17 C9          2.1055   -7.3469   -5.3071 C.ar      1 <0>        -0.0968
     18 C10         1.0597   -6.4443   -5.0428 C.ar      1 <0>         0.3109
     19 N4         -0.1488   -6.6929   -5.5312 N.ar      1 <0>        -0.5415
     20 C11        -0.3723   -7.7795   -6.2576 C.ar      1 <0>         0.4987
     21 N5          0.5864   -8.6608   -6.5286 N.ar      1 <0>        -0.5729
     22 C12         1.8249   -8.4840   -6.0863 C.ar      1 <0>         0.5137
     23 N6          2.8159   -9.4069   -6.3721 N.pl3     1 <0>        -0.8145
     24 C13        -1.6903   -8.0123   -6.7669 C.1       1 <0>        -0.1263
     25 C14        -2.7708   -8.2031   -7.1844 C.1       1 <0>        -0.0868
     26 C15        -4.1256   -8.4424   -7.7080 C.3       1 <0>        -0.0114
     27 C16        -4.1400   -9.7461   -8.5087 C.3       1 <0>        -0.1106
     28 C17        -5.5482   -9.9948   -9.0529 C.3       1 <0>        -0.0821
     29 C18        -5.5624  -11.2789   -9.8415 C.ar      1 <0>        -0.0824
     30 C19        -5.2866  -11.2612  -11.1960 C.ar      1 <0>        -0.1175
     31 C20        -5.2997  -12.4390  -11.9194 C.ar      1 <0>        -0.1186
     32 C21        -5.5881  -13.6346  -11.2883 C.ar      1 <0>        -0.1254
     33 C22        -5.8630  -13.6524   -9.9337 C.ar      1 <0>        -0.1188
     34 C23        -5.8457  -12.4751   -9.2094 C.ar      1 <0>        -0.1177
     35 O3          2.0984   -3.0988   -5.5591 O.3       1 <0>        -0.5332
     36 O4          1.2850   -0.7342   -4.5440 O.3       1 <0>        -0.5368
     37 H4          1.0039    1.9031    0.0027 H         1 <0>         0.0639
     38 H5         -0.5459    1.8868   -0.8726 H         1 <0>         0.0631
     39 H6         -0.5289    1.8773    0.9072 H         1 <0>         0.0783
     40 H7          0.5293   -0.3651    0.8851 H         1 <0>         0.0718
     41 H8         -1.0205   -0.3814    0.0098 H         1 <0>         0.0712
     42 H9          1.0417    0.1622   -1.8418 H         1 <0>         0.3971
     43 H10        -0.1080   -4.5346   -3.4576 H         1 <0>         0.1314
     44 H11         3.6225   -5.1506   -3.5251 H         1 <0>         0.2226
     45 H12         3.7152   -9.2733   -6.0341 H         1 <0>         0.4212
     46 H13         2.6110  -10.1874   -6.9104 H         1 <0>         0.4117
     47 H14        -4.8278   -8.5181   -6.8778 H         1 <0>         0.0969
     48 H15        -4.4163   -7.6151   -8.3554 H         1 <0>         0.0973
     49 H16        -3.4378   -9.6704   -9.3389 H         1 <0>         0.0710
     50 H17        -3.8493  -10.5734   -7.8612 H         1 <0>         0.0703
     51 H18        -6.2504  -10.0705   -8.2226 H         1 <0>         0.0765
     52 H19        -5.8389   -9.1675   -9.7003 H         1 <0>         0.0766
     53 H20        -5.0613  -10.3271  -11.6890 H         1 <0>         0.1216
     54 H21        -5.0849  -12.4251  -12.9777 H         1 <0>         0.1211
     55 H22        -5.5990  -14.5548  -11.8537 H         1 <0>         0.1203
     56 H23        -6.0886  -14.5865   -9.4407 H         1 <0>         0.1211
     57 H24        -6.0569  -12.4895   -8.1504 H         1 <0>         0.1215
     58 H25         2.1670   -2.3453   -6.1612 H         1 <0>         0.3954
     59 H26         1.2895    0.0542   -3.9840 H         1 <0>         0.3877
@<TRIPOS>BOND
     1    1    2 1
     2    1   37 1
     3    1   38 1
     4    1   39 1
     5    2    3 1
     6    2   40 1
     7    2   41 1
     8    3    4 am
     9    3   42 1
    10    4    5 2
    11    4    6 1
    12    6    7 1
    13    6   13 1
    14    6    8 1
    15    8    9 1
    16    8   10 1
    17    8   36 1
    18   10   11 1
    19   10   12 1
    20   10   35 1
    21   12   13 1
    22   12   14 1
    23   12   43 1
    24   14   18 1
    25   14   15 1
    26   15   16 2
    27   15   44 1
    28   16   17 1
    29   17   22 ar
    30   17   18 ar
    31   18   19 ar
    32   19   20 ar
    33   20   21 ar
    34   20   24 1
    35   21   22 ar
    36   22   23 1
    37   23   45 1
    38   23   46 1
    39   24   25 3
    40   25   26 1
    41   26   27 1
    42   26   47 1
    43   26   48 1
    44   27   28 1
    45   27   49 1
    46   27   50 1
    47   28   29 1
    48   28   51 1
    49   28   52 1
    50   29   34 ar
    51   29   30 ar
    52   30   31 ar
    53   30   53 1
    54   31   32 ar
    55   31   54 1
    56   32   33 ar
    57   32   55 1
    58   33   34 ar
    59   33   56 1
    60   34   57 1
    61   35   58 1
    62   36   59 1
@<TRIPOS>MOLECULE
CHEMBL408624
   31    33     0     0     0
SMALL
USER_CHARGES

@<TRIPOS>ATOM
      1 C1         -0.0187    1.5258    0.0104 C.3       1 <0>        -0.1443
      2 C2          0.0021   -0.0041    0.0020 C.3       1 <0>        -0.0544
      3 C3          0.7074   -0.4901   -1.2379 C.ar      1 <0>         0.3263
      4 N1         -0.0067   -0.6951   -2.3158 N.ar      1 <0>        -0.4869
      5 C4          0.5597   -1.1308   -3.4635 C.ar      1 <0>         0.1674
      6 C5         -0.0535   -1.4129   -4.7460 C.2       1 <0>        -0.1518
      7 C6          0.7155   -1.8423   -5.7626 C.2       1 <0>        -0.1274
      8 S1          2.3506   -1.8986   -5.0530 S.3       1 <0>         0.1342
      9 C7          1.9575   -1.3459   -3.4166 C.ar      1 <0>        -0.2229
     10 C8          2.6743   -1.1166   -2.2535 C.ar      1 <0>         0.2816
     11 N2          2.0118   -0.6806   -1.1791 N.ar      1 <0>        -0.4885
     12 C9          4.1389   -1.3421   -2.2050 C.ar      1 <0>         0.1543
     13 C10         4.9131   -0.6561   -1.2713 C.ar      1 <0>        -0.1250
     14 C11         6.2794   -0.8774   -1.2377 C.ar      1 <0>        -0.0745
     15 C12         6.8265   -1.7784   -2.1399 C.ar      1 <0>        -0.1532
     16 C13         5.9984   -2.4247   -3.0400 C.ar      1 <0>         0.1334
     17 N3          4.7009   -2.1995   -3.0473 N.ar      1 <0>        -0.4625
     18 C14         6.5883   -3.4038   -4.0221 C.3       1 <0>        -0.1056
     19 H1          1.0039    1.9031    0.0027 H         1 <0>         0.0581
     20 H2         -0.5459    1.8868   -0.8726 H         1 <0>         0.0582
     21 H3         -0.5289    1.8773    0.9072 H         1 <0>         0.0701
     22 H4          0.5293   -0.3651    0.8851 H         1 <0>         0.0932
     23 H5         -1.0205   -0.3814    0.0098 H         1 <0>         0.0929
     24 H6         -1.1164   -1.2802   -4.8839 H         1 <0>         0.1523
     25 H7          0.4144   -2.0932   -6.7690 H         1 <0>         0.2028
     26 H8          4.4539    0.0388   -0.5837 H         1 <0>         0.1465
     27 H9          6.9052   -0.3602   -0.5256 H         1 <0>         0.1437
     28 H10         7.8889   -1.9730   -2.1397 H         1 <0>         0.1417
     29 H11         6.5909   -4.4016   -3.5834 H         1 <0>         0.0812
     30 H12         5.9904   -3.4091   -4.9335 H         1 <0>         0.0804
     31 H13         7.6103   -3.1088   -4.2598 H         1 <0>         0.0787
@<TRIPOS>BOND
     1    1    2 1
     2    1   19 1
     3    1   20 1
     4    1   21 1
     5    2    3 1
     6    2   22 1
     7    2   23 1
     8    3   11 ar
     9    3    4 ar
    10    4    5 ar
    11    5    9 ar
    12    5    6 1
    13    6    7 2
    14    6   24 1
    15    7    8 1
    16    7   25 1
    17    8    9 1
    18    9   10 ar
    19   10   11 ar
    20   10   12 1
    21   12   17 ar
    22   12   13 ar
    23   13   14 ar
    24   13   26 1
    25   14   15 ar
    26   14   27 1
    27   15   16 ar
    28   15   28 1
    29   16   17 ar
    30   16   18 1
    31   18   29 1
    32   18   30 1
    33   18   31 1
@<TRIPOS>MOLECULE
CHEMBL401321
   31    33     0     0     0
SMALL
USER_CHARGES

@<TRIPOS>ATOM
      1 C1         -2.3523    1.4711    0.0299 C.3       1 <0>        -0.1719
      2 C2         -2.3320   -0.0357    0.0198 C.2       1 <0>         0.5022
      3 O1         -3.3739   -0.6562    0.0212 O.2       1 <0>        -0.4662
      4 N1         -1.1558   -0.6938    0.0094 N.am      1 <0>        -0.6545
      5 C3         -1.1342   -2.0812    0.1067 C.ar      1 <0>         0.4377
      6 C4          0.0772   -2.7632    0.2027 C.ar      1 <0>        -0.2656
      7 C5          0.0520   -4.1506    0.2981 C.ar      1 <0>         0.4523
      8 N2         -1.1183   -4.7787    0.2949 N.ar      1 <0>        -0.5533
      9 C6         -2.2548   -4.0982    0.2020 C.ar      1 <0>         0.4644
     10 N3         -2.2682   -2.7727    0.1149 N.ar      1 <0>        -0.5068
     11 C7         -3.5349   -4.8321    0.2012 C.2       1 <0>         0.0111
     12 C8         -4.7738   -4.2771    0.1073 C.2       1 <0>        -0.1149
     13 C9         -5.6973   -5.3386    0.1453 C.2       1 <0>        -0.2250
     14 C10        -4.9853   -6.4783    0.2593 C.2       1 <0>        -0.0055
     15 O2         -3.6802   -6.1691    0.2873 O.3       1 <0>        -0.1541
     16 N4          1.2422   -4.8740    0.3957 N.pl3     1 <0>        -0.3327
     17 C11         1.3526   -6.2253    0.4885 C.2       1 <0>         0.0840
     18 C12         2.6696   -6.5240    0.5629 C.2       1 <0>        -0.2574
     19 C13         3.3882   -5.3236    0.5145 C.2       1 <0>         0.0754
     20 N5          2.5360   -4.3370    0.4093 N.2       1 <0>        -0.2832
     21 H1         -3.3847    1.8205    0.0376 H         1 <0>         0.1011
     22 H2         -1.8388    1.8355    0.9197 H         1 <0>         0.0945
     23 H3         -1.8480    1.8472   -0.8602 H         1 <0>         0.0943
     24 H4         -0.3244   -0.1999   -0.0661 H         1 <0>         0.4258
     25 H5          1.0145   -2.2266    0.2026 H         1 <0>         0.1641
     26 H6         -5.0040   -3.2255    0.0208 H         1 <0>         0.1666
     27 H7         -6.7729   -5.2560    0.0931 H         1 <0>         0.1581
     28 H8         -5.3974   -7.4751    0.3146 H         1 <0>         0.2125
     29 H9          0.5365   -6.9326    0.5010 H         1 <0>         0.1866
     30 H10         3.0924   -7.5144    0.6452 H         1 <0>         0.1619
     31 H11         4.4633   -5.2287    0.5531 H         1 <0>         0.1986
@<TRIPOS>BOND
     1    1    2 1
     2    1   21 1
     3    1   22 1
     4    1   23 1
     5    2    3 2
     6    2    4 am
     7    4    5 1
     8    4   24 1
     9    5   10 ar
    10    5    6 ar
    11    6    7 ar
    12    6   25 1
    13    7    8 ar
    14    7   16 1
    15    8    9 ar
    16    9   10 ar
    17    9   11 1
    18   11   15 1
    19   11   12 2
    20   12   13 1
    21   12   26 1
    22   13   14 2
    23   13   27 1
    24   14   15 1
    25   14   28 1
    26   16   20 1
    27   16   17 1
    28   17   18 2
    29   17   29 1
    30   18   19 1
    31   18   30 1
    32   19   20 2
    33   19   31 1
@<TRIPOS>MOLECULE
CHEMBL373941
   75    81     0     0     0
SMALL
USER_CHARGES

@<TRIPOS>ATOM
      1 C1         -0.7615    0.7625    0.8326 C.ar      1 <0>        -0.0775
      2 C2          0.3418    1.5855    1.0004 C.ar      1 <0>        -0.1692
      3 C3          1.6084    1.0493    0.8672 C.ar      1 <0>         0.1077
      4 N1          1.7738   -0.2282    0.5842 N.ar      1 <0>        -0.4589
      5 C4          0.7481   -1.0400    0.4179 C.ar      1 <0>         0.1351
      6 C5         -0.5481   -0.5748    0.5358 C.ar      1 <0>        -0.1804
      7 C6          0.9920   -2.4918    0.0956 C.3       1 <0>         0.0950
      8 N2          1.2143   -2.6421   -1.3487 N.3       1 <0>        -0.5096
      9 C7          1.6012   -4.0196   -1.6812 C.3       1 <0>         0.1095
     10 C8          2.9484   -4.3227   -1.0777 C.ar      1 <0>         0.1249
     11 C9          3.0205   -4.9528    0.1505 C.ar      1 <0>        -0.1688
     12 C10         4.2647   -5.2274    0.6967 C.ar      1 <0>        -0.0712
     13 C11         5.3949   -4.8564   -0.0160 C.ar      1 <0>        -0.1645
     14 C12         5.2445   -4.2296   -1.2383 C.ar      1 <0>         0.1047
     15 N3          4.0446   -3.9886   -1.7297 N.ar      1 <0>        -0.4640
     16 C13         0.0272   -2.2304   -2.1097 C.3       1 <0>         0.0420
     17 C14         0.0827   -0.7229   -2.3653 C.3       1 <0>        -0.1213
     18 H1          0.1588   -0.1937   -1.4154 H         1 <0>         0.1285
     19 C15         1.3004   -0.3939   -3.2357 C.3       1 <0>        -0.1167
     20 C16         1.1463   -1.1068   -4.5799 C.3       1 <0>        -0.1362
     21 C17        -0.1640   -0.6787   -5.2497 C.3       1 <0>         0.0159
     22 H2         -0.1390    0.3926   -5.4490 H         1 <0>         0.1438
     23 C18        -0.2870   -1.4451   -6.5738 C.3       1 <0>         0.1090
     24 N4         -1.6059   -1.1806   -7.1635 N.pl3     1 <0>        -0.5989
     25 C19        -2.7877   -1.3637   -6.3053 C.3       1 <0>         0.0915
     26 C20        -2.5609   -0.5738   -5.0145 C.3       1 <0>        -0.0219
     27 N5         -1.3011   -0.9895   -4.3773 N.4       1 <0>        -0.3794
     28 C21        -1.1830   -0.2805   -3.0984 C.3       1 <0>        -0.0025
     29 C22        -1.7317   -0.7773   -8.4664 C.2       1 <0>         0.6640
     30 N6         -2.9843   -0.5354   -8.9766 N.pl3     1 <0>        -0.7079
     31 C23        -3.1070    0.3090  -10.0799 C.2       1 <0>         0.6320
     32 N7         -2.0045    0.2993  -10.9185 N.pl3     1 <0>        -0.3832
     33 C24        -0.7863   -0.1623  -10.4640 C.2       1 <0>         0.5001
     34 N8         -0.6443   -0.6242   -9.2037 N.2       1 <0>        -0.5245
     35 N9          0.0674   -0.0463  -11.4486 N.2       1 <0>        -0.4762
     36 C25        -0.5531    0.4666  -12.5267 C.2       1 <0>         0.3320
     37 N10        -1.8242    0.6877  -12.2356 N.2       1 <0>        -0.2437
     38 C26         0.0854    0.7403  -13.8309 C.2       1 <0>         0.0320
     39 C27         1.3887    0.5128  -14.1446 C.2       1 <0>        -0.1242
     40 C28         1.5604    0.9172  -15.4834 C.2       1 <0>        -0.2196
     41 C29         0.3661    1.3669  -15.9162 C.2       1 <0>        -0.0013
     42 O1         -0.5239    1.2531  -14.9173 O.3       1 <0>        -0.1588
     43 N11        -4.1624    1.0395  -10.3018 N.2       1 <0>        -0.6532
     44 H3         -1.7632    1.1530    0.9350 H         1 <0>         0.1365
     45 H4          0.2129    2.6325    1.2319 H         1 <0>         0.1391
     46 H5          2.4729    1.6837    0.9960 H         1 <0>         0.1602
     47 H6         -1.3841   -1.2447    0.3988 H         1 <0>         0.1308
     48 H7          1.8711   -2.8414    0.6369 H         1 <0>         0.1033
     49 H8          0.1243   -3.0807    0.3928 H         1 <0>         0.0583
     50 H9          0.8600   -4.7117   -1.2815 H         1 <0>         0.0571
     51 H10         1.6550   -4.1305   -2.7642 H         1 <0>         0.0961
     52 H11         2.1191   -5.2273    0.6781 H         1 <0>         0.1301
     53 H12         4.3518   -5.7184    1.6547 H         1 <0>         0.1367
     54 H13         6.3802   -5.0544    0.3794 H         1 <0>         0.1383
     55 H14         6.1197   -3.9372   -1.7995 H         1 <0>         0.1587
     56 H15         0.0046   -2.7598   -3.0623 H         1 <0>         0.0691
     57 H16        -0.8707   -2.4694   -1.5398 H         1 <0>         0.0564
     58 H17         1.3549    0.6828   -3.3967 H         1 <0>         0.0740
     59 H18         2.2081   -0.7388   -2.7405 H         1 <0>         0.1149
     60 H19         1.9849   -0.8470   -5.2259 H         1 <0>         0.1181
     61 H20         1.1353   -2.1848   -4.4189 H         1 <0>         0.0928
     62 H21         0.4920   -1.1135   -7.2603 H         1 <0>         0.1532
     63 H22        -0.1790   -2.5136   -6.3875 H         1 <0>         0.1034
     64 H23        -3.6752   -0.9891   -6.8155 H         1 <0>         0.1229
     65 H24        -2.9142   -2.4211   -6.0729 H         1 <0>         0.1125
     66 H25        -2.5099    0.4902   -5.2456 H         1 <0>         0.1368
     67 H26        -3.3893   -0.7544   -4.3294 H         1 <0>         0.1508
     68 H27        -2.0532   -0.4959   -2.4783 H         1 <0>         0.1316
     69 H28        -1.1343    0.7918   -3.2879 H         1 <0>         0.1309
     70 H29         2.1460    0.1021  -13.4934 H         1 <0>         0.1631
     71 H30         2.4761    0.8751  -16.0545 H         1 <0>         0.1611
     72 H31         0.1582    1.7506  -16.9041 H         1 <0>         0.2152
     73 H32        -4.9103    1.0114   -9.6847 H         1 <0>         0.3678
     74 H33        -3.7682   -0.9442   -8.5774 H         1 <0>         0.4277
     75 H34        -1.3295   -1.9828   -4.2020 H         1 <0>         0.4186
@<TRIPOS>BOND
     1    1    6 ar
     2    1    2 ar
     3    1   44 1
     4    2    3 ar
     5    2   45 1
     6    3    4 ar
     7    3   46 1
     8    4    5 ar
     9    5    6 ar
    10    5    7 1
    11    6   47 1
    12    7    8 1
    13    7   48 1
    14    7   49 1
    15    8    9 1
    16    8   16 1
    17    9   10 1
    18    9   50 1
    19    9   51 1
    20   10   15 ar
    21   10   11 ar
    22   11   12 ar
    23   11   52 1
    24   12   13 ar
    25   12   53 1
    26   13   14 ar
    27   13   54 1
    28   14   15 ar
    29   14   55 1
    30   16   17 1
    31   16   56 1
    32   16   57 1
    33   17   18 1
    34   17   28 1
    35   17   19 1
    36   19   20 1
    37   19   58 1
    38   19   59 1
    39   20   21 1
    40   20   60 1
    41   20   61 1
    42   21   22 1
    43   21   27 1
    44   21   23 1
    45   23   24 1
    46   23   62 1
    47   23   63 1
    48   24   25 1
    49   24   29 1
    50   25   26 1
    51   25   64 1
    52   25   65 1
    53   26   27 1
    54   26   66 1
    55   26   67 1
    56   27   28 1
    57   27   75 1
    58   28   68 1
    59   28   69 1
    60   29   34 2
    61   29   30 1
    62   30   31 1
    63   30   74 1
    64   31   32 1
    65   31   43 2
    66   32   37 1
    67   32   33 1
    68   33   34 1
    69   33   35 2
    70   35   36 1
    71   36   37 2
    72   36   38 1
    73   38   42 1
    74   38   39 2
    75   39   40 1
    76   39   70 1
    77   40   41 2
    78   40   71 1
    79   41   42 1
    80   41   72 1
    81   43   73 1
@<TRIPOS>MOLECULE
CHEMBL461650
   31    34     0     0     0
SMALL
USER_CHARGES

@<TRIPOS>ATOM
      1 C1         -0.0162    1.3409    0.0094 C.2       1 <0>        -0.2212
      2 C2          1.3313    1.7689   -0.0012 C.2       1 <0>        -0.1663
      3 C3          2.0923    0.6599   -0.0144 C.2       1 <0>        -0.0581
      4 O1          1.2819   -0.4111   -0.0124 O.3       1 <0>        -0.1663
      5 C4          0.0021   -0.0041    0.0020 C.2       1 <0>        -0.0184
      6 C5          3.5989    0.6249   -0.0294 C.3       1 <0>         0.2216
      7 N1          4.1006    0.6065    1.3469 N.pl3     1 <0>        -0.3877
      8 C6          4.4009    1.6925    2.1220 C.ar      1 <0>         0.3647
      9 C7          4.8421    1.1793    3.3556 C.ar      1 <0>        -0.1551
     10 C8          5.2232    2.0986    4.3601 C.ar      1 <0>         0.4103
     11 N2          5.1465    3.4010    4.0915 N.ar      1 <0>        -0.5500
     12 C9          4.7237    3.8342    2.9119 C.ar      1 <0>         0.6227
     13 N3          4.3579    3.0091    1.9441 N.ar      1 <0>        -0.5804
     14 N4          4.6630    5.1985    2.6844 N.pl3     1 <0>        -0.8023
     15 C10         5.6936    1.6271    5.6731 C.2       1 <0>        -0.0088
     16 C11         6.6514    2.2198    6.4402 C.2       1 <0>        -0.1216
     17 C12         6.7807    1.4377    7.6021 C.2       1 <0>        -0.2249
     18 C13         5.9061    0.4162    7.4915 C.2       1 <0>         0.0020
     19 O2          5.2478    0.5370    6.3289 O.3       1 <0>        -0.1492
     20 N5          4.7944   -0.1608    3.2845 N.2       1 <0>        -0.1646
     21 N6          4.3613   -0.5287    2.1293 N.2       1 <0>         0.0065
     22 H1         -0.8920    1.9726    0.0252 H         1 <0>         0.1527
     23 H2          1.6822    2.7903    0.0004 H         1 <0>         0.1531
     24 H3         -0.8653   -0.6475    0.0072 H         1 <0>         0.2078
     25 H4          3.9364   -0.2706   -0.5512 H         1 <0>         0.1237
     26 H5          3.9777    1.5089   -0.5424 H         1 <0>         0.1344
     27 H6          4.9273    5.8187    3.3818 H         1 <0>         0.4224
     28 H7          4.3562    5.5341    1.8276 H         1 <0>         0.4209
     29 H8          7.2043    3.1164    6.2020 H         1 <0>         0.1598
     30 H9          7.4532    1.6204    8.4272 H         1 <0>         0.1588
     31 H10         5.7573   -0.3666    8.2205 H         1 <0>         0.2135
@<TRIPOS>BOND
     1    1    5 2
     2    1    2 1
     3    1   22 1
     4    2    3 2
     5    2   23 1
     6    3    4 1
     7    3    6 1
     8    4    5 1
     9    5   24 1
    10    6    7 1
    11    6   25 1
    12    6   26 1
    13    7   21 1
    14    7    8 1
    15    8   13 ar
    16    8    9 ar
    17    9   10 ar
    18    9   20 1
    19   10   11 ar
    20   10   15 1
    21   11   12 ar
    22   12   13 ar
    23   12   14 1
    24   14   27 1
    25   14   28 1
    26   15   19 1
    27   15   16 2
    28   16   17 1
    29   16   29 1
    30   17   18 2
    31   17   30 1
    32   18   19 1
    33   18   31 1
    34   20   21 2
@<TRIPOS>MOLECULE
CHEMBL1087709
   48    52     0     0     0
SMALL
USER_CHARGES

@<TRIPOS>ATOM
      1 C1         -0.0167    1.3793    0.0096 C.ar      1 <0>        -0.0830
      2 C2          1.1685    2.0929    0.0021 C.ar      1 <0>        -0.1315
      3 C3          2.3774    1.4279   -0.0130 C.ar      1 <0>        -0.0619
      4 C4          2.4029    0.0333   -0.0207 C.ar      1 <0>        -0.0965
      5 C5          1.2046   -0.6805   -0.0131 C.ar      1 <0>        -0.0587
      6 C6          0.0021   -0.0041    0.0020 C.ar      1 <0>        -0.1255
      7 C7          3.6972   -0.6866   -0.0375 C.ar      1 <0>         0.3588
      8 C8          3.8485   -1.9053    0.6416 C.ar      1 <0>        -0.3354
      9 C9          5.0995   -2.5526    0.5963 C.ar      1 <0>         0.2803
     10 N1          6.0850   -1.9878   -0.0854 N.ar      1 <0>        -0.5862
     11 C10         5.9016   -0.8324   -0.7162 C.ar      1 <0>         0.6080
     12 N2          4.7422   -0.1938   -0.7026 N.ar      1 <0>        -0.5585
     13 N3          6.9560   -0.2811   -1.4137 N.pl3     1 <0>        -0.8008
     14 C11         5.0091   -3.8087    1.3828 C.ar      1 <0>        -0.0128
     15 C12         5.9398   -4.8012    1.6568 C.ar      1 <0>        -0.1140
     16 C13         5.5832   -5.8911    2.4363 C.ar      1 <0>        -0.0705
     17 C14         4.3040   -5.9981    2.9448 C.ar      1 <0>        -0.0949
     18 C15         3.3631   -5.0152    2.6796 C.ar      1 <0>        -0.0220
     19 C16         3.7079   -3.9189    1.9009 C.ar      1 <0>        -0.1348
     20 C17         2.9384   -2.7304    1.4536 C.2       1 <0>         0.4549
     21 O1          1.7764   -2.4848    1.7094 O.2       1 <0>        -0.3895
     22 C18         7.3386   -4.6945    1.1063 C.3       1 <0>         0.0471
     23 N4          8.1250   -3.7772    1.9419 N.4       1 <0>        -0.3914
     24 C19         8.3644   -4.3797    3.2783 C.3       1 <0>        -0.0090
     25 C20         9.6089   -3.6145    3.7943 C.3       1 <0>        -0.1451
     26 C21        10.4593   -3.4354    2.5157 C.3       1 <0>        -0.1442
     27 C22         9.4634   -3.5674    1.3486 C.3       1 <0>        -0.0062
     28 H1         -0.9604    1.9042    0.0260 H         1 <0>         0.1314
     29 H2          1.1475    3.1726    0.0078 H         1 <0>         0.1323
     30 H3          3.3020    1.9860   -0.0192 H         1 <0>         0.1301
     31 H4          1.2180   -1.7604   -0.0194 H         1 <0>         0.1326
     32 H5         -0.9264   -0.5556    0.0083 H         1 <0>         0.1325
     33 H6          7.8124   -0.7360   -1.4376 H         1 <0>         0.4174
     34 H7          6.8412    0.5615   -1.8803 H         1 <0>         0.4270
     35 H8          6.3105   -6.6613    2.6467 H         1 <0>         0.1482
     36 H9          4.0354   -6.8506    3.5509 H         1 <0>         0.1542
     37 H10         2.3631   -5.1023    3.0782 H         1 <0>         0.1534
     38 H11         7.8060   -5.6792    1.1086 H         1 <0>         0.1407
     39 H12         7.2994   -4.3132    0.0860 H         1 <0>         0.1440
     40 H13         7.5104   -4.2121    3.9345 H         1 <0>         0.1319
     41 H14         8.5779   -5.4447    3.1875 H         1 <0>         0.1357
     42 H15         9.3233   -2.6467    4.2063 H         1 <0>         0.0960
     43 H16        10.1462   -4.2068    4.5350 H         1 <0>         0.1178
     44 H17        10.9250   -2.4499    2.5061 H         1 <0>         0.1042
     45 H18        11.2192   -4.2144    2.4545 H         1 <0>         0.1051
     46 H19         9.7317   -4.4211    0.7263 H         1 <0>         0.1323
     47 H20         9.4665   -2.6546    0.7528 H         1 <0>         0.1310
     48 H21         7.6447   -2.8951    2.0379 H         1 <0>         0.4256
@<TRIPOS>BOND
     1    1    6 ar
     2    1    2 ar
     3    1   28 1
     4    2    3 ar
     5    2   29 1
     6    3    4 ar
     7    3   30 1
     8    4    5 ar
     9    4    7 1
    10    5    6 ar
    11    5   31 1
    12    6   32 1
    13    7   12 ar
    14    7    8 ar
    15    8   20 1
    16    8    9 ar
    17    9   10 ar
    18    9   14 1
    19   10   11 ar
    20   11   12 ar
    21   11   13 1
    22   13   33 1
    23   13   34 1
    24   14   19 ar
    25   14   15 ar
    26   15   16 ar
    27   15   22 1
    28   16   17 ar
    29   16   35 1
    30   17   18 ar
    31   17   36 1
    32   18   19 ar
    33   18   37 1
    34   19   20 1
    35   20   21 2
    36   22   23 1
    37   22   38 1
    38   22   39 1
    39   23   27 1
    40   23   24 1
    41   23   48 1
    42   24   25 1
    43   24   40 1
    44   24   41 1
    45   25   26 1
    46   25   42 1
    47   25   43 1
    48   26   27 1
    49   26   44 1
    50   26   45 1
    51   27   46 1
    52   27   47 1
@<TRIPOS>MOLECULE
CHEMBL259832
   36    39     0     0     0
SMALL
USER_CHARGES

@<TRIPOS>ATOM
      1 C1         -0.0162    1.3409    0.0094 C.2       1 <0>        -0.2190
      2 C2          1.3313    1.7689   -0.0012 C.2       1 <0>        -0.1717
      3 C3          2.0923    0.6599   -0.0144 C.2       1 <0>        -0.0509
      4 O1          1.2819   -0.4111   -0.0124 O.3       1 <0>        -0.1702
      5 C4          0.0021   -0.0041    0.0020 C.2       1 <0>        -0.0194
      6 C5          3.5989    0.6249   -0.0294 C.3       1 <0>         0.2196
      7 N1          4.1006    0.6065    1.3469 N.am      1 <0>        -0.7236
      8 C6          5.4277    0.5745    1.5799 C.2       1 <0>         0.7122
      9 O2          6.2080    0.5610    0.6485 O.2       1 <0>        -0.5068
     10 N2          5.8894    0.5575    2.8460 N.am      1 <0>        -0.4705
     11 C7          5.1315    0.5635    3.9881 C.2       1 <0>         0.2530
     12 N3          5.9052    0.5419    5.0328 N.2       1 <0>        -0.4169
     13 C8          7.2014    0.5208    4.6398 C.ar      1 <0>        -0.0934
     14 C9          7.2116    0.5249    3.2341 C.ar      1 <0>         0.3668
     15 N4          8.3735    0.5015    2.5947 N.ar      1 <0>        -0.5473
     16 C10         9.5149    0.4715    3.2664 C.ar      1 <0>         0.6033
     17 N5          9.5576    0.4631    4.5903 N.ar      1 <0>        -0.5433
     18 C11         8.4382    0.4936    5.3151 C.ar      1 <0>         0.3710
     19 C12         8.4930    0.4828    6.7870 C.2       1 <0>         0.0044
     20 C13         9.4170   -0.1673    7.5483 C.2       1 <0>        -0.1326
     21 C14         9.0907    0.0936    8.8918 C.2       1 <0>        -0.2233
     22 C15         7.9958    0.8816    8.8875 C.2       1 <0>        -0.0067
     23 O3          7.6413    1.1191    7.6154 O.3       1 <0>        -0.1488
     24 N6         10.7058    0.4478    2.5592 N.pl3     1 <0>        -0.8074
     25 H1         -0.8920    1.9726    0.0252 H         1 <0>         0.1535
     26 H2          1.6822    2.7903    0.0004 H         1 <0>         0.1533
     27 H3         -0.8653   -0.6475    0.0072 H         1 <0>         0.2078
     28 H4          3.9364   -0.2706   -0.5512 H         1 <0>         0.0940
     29 H5          3.9777    1.5089   -0.5424 H         1 <0>         0.1080
     30 H6          3.4778    0.6173    2.0904 H         1 <0>         0.4059
     31 H7          4.0521    0.5835    4.0161 H         1 <0>         0.2318
     32 H8         10.2404   -0.7673    7.1899 H         1 <0>         0.1576
     33 H9          9.6171   -0.2690    9.7623 H         1 <0>         0.1566
     34 H10         7.4904    1.2616    9.7631 H         1 <0>         0.2114
     35 H11        10.6942    0.4532    1.5893 H         1 <0>         0.4207
     36 H12        11.5514    0.4257    3.0340 H         1 <0>         0.4208
@<TRIPOS>BOND
     1    1    5 2
     2    1    2 1
     3    1   25 1
     4    2    3 2
     5    2   26 1
     6    3    4 1
     7    3    6 1
     8    4    5 1
     9    5   27 1
    10    6    7 1
    11    6   28 1
    12    6   29 1
    13    7    8 am
    14    7   30 1
    15    8    9 2
    16    8   10 am
    17   10   14 1
    18   10   11 1
    19   11   12 2
    20   11   31 1
    21   12   13 1
    22   13   18 ar
    23   13   14 ar
    24   14   15 ar
    25   15   16 ar
    26   16   17 ar
    27   16   24 1
    28   17   18 ar
    29   18   19 1
    30   19   23 1
    31   19   20 2
    32   20   21 1
    33   20   32 1
    34   21   22 2
    35   21   33 1
    36   22   23 1
    37   22   34 1
    38   24   35 1
    39   24   36 1
@<TRIPOS>MOLECULE
CHEMBL195503
   51    55     0     0     0
SMALL
USER_CHARGES

@<TRIPOS>ATOM
      1 C1         -0.3097   -0.1789    1.0667 C.ar      1 <0>        -0.0611
      2 C2          0.6850    0.6955    0.6707 C.ar      1 <0>        -0.1370
      3 C3          1.9748    0.2354    0.4818 C.ar      1 <0>        -0.0270
      4 C4          2.2699   -1.0991    0.6894 C.ar      1 <0>        -0.6644
      5 C5          1.2753   -1.9733    1.0863 C.ar      1 <0>        -0.0241
      6 C6         -0.0147   -1.5134    1.2738 C.ar      1 <0>        -0.1373
      7 S1          3.9136   -1.6858    0.4475 S.o2      1 <0>         2.4900
      8 O1          3.7642   -3.0633    0.1322 O.2       1 <0>        -0.9236
      9 O2          4.4855   -0.7856   -0.4916 O.2       1 <0>        -0.9267
     10 C7          4.7180   -1.4981    2.0626 C.3       1 <0>        -0.5728
     11 C8          6.1447   -1.9748    1.9716 C.ar      1 <0>        -0.0754
     12 C9          6.4344   -3.3195    2.1105 C.ar      1 <0>        -0.1069
     13 C10         7.7429   -3.7567    2.0270 C.ar      1 <0>        -0.1024
     14 C11         8.7621   -2.8494    1.8043 C.ar      1 <0>        -0.1087
     15 C12         8.4723   -1.5052    1.6646 C.ar      1 <0>        -0.0820
     16 C13         7.1630   -1.0684    1.7437 C.ar      1 <0>        -0.1026
     17 C14         6.8465    0.3965    1.5861 C.3       1 <0>         0.1453
     18 N1          6.8140    1.0337    2.9049 N.pl3     1 <0>        -0.4733
     19 C15         5.6972    1.3664    3.6135 C.2       1 <0>         0.2485
     20 N2          6.0350    1.9153    4.7446 N.2       1 <0>        -0.4426
     21 C16         7.3844    1.9701    4.8344 C.ar      1 <0>        -0.0897
     22 C17         7.9020    1.4002    3.6570 C.ar      1 <0>         0.3372
     23 N3          9.2181    1.3278    3.4972 N.ar      1 <0>        -0.5697
     24 C18        10.0386    1.7820    4.4320 C.ar      1 <0>         0.5985
     25 N4          9.5996    2.3242    5.5583 N.ar      1 <0>        -0.5487
     26 C19         8.2936    2.4450    5.8009 C.ar      1 <0>         0.3650
     27 C20         7.8129    3.0471    7.0563 C.2       1 <0>         0.0094
     28 C21         8.4136    2.9435    8.2746 C.2       1 <0>        -0.1384
     29 C22         7.6183    3.6681    9.1812 C.2       1 <0>        -0.2229
     30 C23         6.5816    4.1741    8.4819 C.2       1 <0>        -0.0107
     31 O3          6.7051    3.8014    7.1989 O.3       1 <0>        -0.1487
     32 N5         11.4052    1.6863    4.2250 N.pl3     1 <0>        -0.8145
     33 H1         -1.3164    0.1815    1.2186 H         1 <0>         0.1339
     34 H2          0.4544    1.7381    0.5085 H         1 <0>         0.1363
     35 H3          2.7518    0.9184    0.1717 H         1 <0>         0.1422
     36 H4          1.5058   -3.0159    1.2481 H         1 <0>         0.1427
     37 H5         -0.7918   -2.1965    1.5835 H         1 <0>         0.1359
     38 H6          4.7036   -0.4484    2.3558 H         1 <0>         0.1333
     39 H7          4.1837   -2.0903    2.8055 H         1 <0>         0.1543
     40 H8          5.6383   -4.0283    2.2845 H         1 <0>         0.1367
     41 H9          7.9694   -4.8070    2.1362 H         1 <0>         0.1335
     42 H10         9.7846   -3.1909    1.7398 H         1 <0>         0.1318
     43 H11         9.2685   -0.7964    1.4909 H         1 <0>         0.1366
     44 H12         7.6130    0.8699    0.9726 H         1 <0>         0.1124
     45 H13         5.8751    0.5086    1.1045 H         1 <0>         0.1114
     46 H14         4.6821    1.1992    3.2847 H         1 <0>         0.2194
     47 H15         9.3242    2.4086    8.5008 H         1 <0>         0.1560
     48 H16         7.8028    3.7951   10.2378 H         1 <0>         0.1555
     49 H17         5.7861    4.7818    8.8870 H         1 <0>         0.2100
     50 H18        11.7454    1.2921    3.4066 H         1 <0>         0.4168
     51 H19        12.0218    2.0137    4.8984 H         1 <0>         0.4187
@<TRIPOS>BOND
     1    1    6 ar
     2    1    2 ar
     3    1   33 1
     4    2    3 ar
     5    2   34 1
     6    3    4 ar
     7    3   35 1
     8    4    5 ar
     9    4    7 1
    10    5    6 ar
    11    5   36 1
    12    6   37 1
    13    7    8 2
    14    7    9 2
    15    7   10 1
    16   10   11 1
    17   10   38 1
    18   10   39 1
    19   11   16 ar
    20   11   12 ar
    21   12   13 ar
    22   12   40 1
    23   13   14 ar
    24   13   41 1
    25   14   15 ar
    26   14   42 1
    27   15   16 ar
    28   15   43 1
    29   16   17 1
    30   17   18 1
    31   17   44 1
    32   17   45 1
    33   18   22 1
    34   18   19 1
    35   19   20 2
    36   19   46 1
    37   20   21 1
    38   21   26 ar
    39   21   22 ar
    40   22   23 ar
    41   23   24 ar
    42   24   25 ar
    43   24   32 1
    44   25   26 ar
    45   26   27 1
    46   27   31 1
    47   27   28 2
    48   28   29 1
    49   28   47 1
    50   29   30 2
    51   29   48 1
    52   30   31 1
    53   30   49 1
    54   32   50 1
    55   32   51 1
@<TRIPOS>MOLECULE
CHEMBL472026
   60    63     0     0     0
SMALL
USER_CHARGES

@<TRIPOS>ATOM
      1 C1          0.1446    1.7061   -0.8793 C.3       1 <0>        -0.0737
      2 C2          0.1358    0.2149   -0.6613 C.2       1 <0>         0.0957
      3 C3          0.0166   -0.7583   -1.6607 C.2       1 <0>        -0.2627
      4 C4          0.0513   -1.9727   -1.0667 C.2       1 <0>         0.1246
      5 N1          0.1886   -1.7724    0.2706 N.pl3     1 <0>        -0.3214
      6 N2          0.2438   -0.3903    0.4929 N.2       1 <0>        -0.2690
      7 C5          0.2651   -2.7658    1.2470 C.ar      1 <0>         0.6053
      8 N3          0.2369   -2.4173    2.5219 N.ar      1 <0>        -0.5291
      9 C6          0.3078   -3.3379    3.4826 C.ar      1 <0>         0.2610
     10 C7          0.4128   -4.6813    3.1259 C.ar      1 <0>        -0.2739
     11 C8          0.4392   -5.0057    1.7715 C.ar      1 <0>         0.4452
     12 N4          0.3586   -4.0309    0.8714 N.ar      1 <0>        -0.5301
     13 N5          0.5428   -6.3322    1.3665 N.am      1 <0>        -0.6553
     14 C9          0.6803   -6.6287    0.0589 C.2       1 <0>         0.5017
     15 O1          0.6201   -5.7477   -0.7722 O.2       1 <0>        -0.4643
     16 C10         0.9087   -8.0552   -0.3702 C.3       1 <0>        -0.1732
     17 C11         0.2760   -2.9389    4.9110 C.ar      1 <0>        -0.0131
     18 C12         0.3565   -3.9083    5.9096 C.ar      1 <0>        -0.1118
     19 C13         0.3266   -3.5345    7.2378 C.ar      1 <0>        -0.0806
     20 C14         0.2171   -2.2000    7.5821 C.ar      1 <0>        -0.1861
     21 C15         0.1360   -1.2286    6.5941 C.ar      1 <0>         0.1122
     22 C16         0.1715   -1.5942    5.2583 C.ar      1 <0>        -0.0922
     23 O2          0.0275    0.0820    6.9371 O.3       1 <0>        -0.3193
     24 C17         0.1291    0.3994    8.3267 C.3       1 <0>         0.0593
     25 C18        -1.2422    0.2395    8.9894 C.3       1 <0>        -0.1623
     26 C19        -2.2190    1.2413    8.3670 C.3       1 <0>        -0.1431
     27 C20        -1.6597    2.6567    8.5259 C.3       1 <0>        -0.0077
     28 N6         -0.3608    2.7523    7.8490 N.4       1 <0>        -0.3844
     29 C21         0.6014    1.8460    8.4872 C.3       1 <0>         0.0039
     30 C22         0.1355    4.1322    7.9375 C.3       1 <0>        -0.0478
     31 C23        -0.0455   -3.3064   -1.7616 C.3       1 <0>        -0.0927
     32 H1          1.1686    2.0440   -1.0384 H         1 <0>         0.0827
     33 H2         -0.4583    1.9489   -1.7543 H         1 <0>         0.0843
     34 H3         -0.2702    2.2038   -0.0028 H         1 <0>         0.0738
     35 H4         -0.0854   -0.5720   -2.7196 H         1 <0>         0.1607
     36 H5          0.4725   -5.4514    3.8808 H         1 <0>         0.1587
     37 H6          0.5162   -7.0439    2.0250 H         1 <0>         0.4265
     38 H7          0.0690   -8.6706   -0.0475 H         1 <0>         0.0949
     39 H8          0.9948   -8.0986   -1.4560 H         1 <0>         0.1028
     40 H9          1.8275   -8.4280    0.0823 H         1 <0>         0.0950
     41 H10         0.4418   -4.9516    5.6439 H         1 <0>         0.1373
     42 H11         0.3887   -4.2866    8.0104 H         1 <0>         0.1389
     43 H12         0.1942   -1.9126    8.6229 H         1 <0>         0.1331
     44 H13         0.1137   -0.8390    4.4884 H         1 <0>         0.1494
     45 H14         0.8443   -0.2718    8.8021 H         1 <0>         0.1186
     46 H15        -1.6085   -0.7745    8.8289 H         1 <0>         0.1009
     47 H16        -1.1550    0.4317   10.0587 H         1 <0>         0.0979
     48 H17        -2.3452    1.0167    7.3079 H         1 <0>         0.0941
     49 H18        -3.1825    1.1719    8.8718 H         1 <0>         0.1142
     50 H19        -2.3528    3.3726    8.0840 H         1 <0>         0.1329
     51 H20        -1.5341    2.8804    9.5853 H         1 <0>         0.1291
     52 H21         0.6788    2.0870    9.5474 H         1 <0>         0.1465
     53 H22         1.5776    1.9634    8.0167 H         1 <0>         0.1395
     54 H23         0.2497    4.4107    8.9851 H         1 <0>         0.1222
     55 H24         1.1001    4.2043    7.4351 H         1 <0>         0.1248
     56 H25        -0.5752    4.8053    7.4580 H         1 <0>         0.1257
     57 H26         0.9509   -3.6358   -2.0563 H         1 <0>         0.0855
     58 H27        -0.4843   -4.0384   -1.0836 H         1 <0>         0.1076
     59 H28        -0.6731   -3.2098   -2.6476 H         1 <0>         0.0742
     60 H29        -0.4688    2.4975    6.8787 H         1 <0>         0.4330
@<TRIPOS>BOND
     1    1    2 1
     2    1   32 1
     3    1   33 1
     4    1   34 1
     5    2    6 2
     6    2    3 1
     7    3    4 2
     8    3   35 1
     9    4    5 1
    10    4   31 1
    11    5    6 1
    12    5    7 1
    13    7   12 ar
    14    7    8 ar
    15    8    9 ar
    16    9   10 ar
    17    9   17 1
    18   10   11 ar
    19   10   36 1
    20   11   12 ar
    21   11   13 1
    22   13   14 am
    23   13   37 1
    24   14   15 2
    25   14   16 1
    26   16   38 1
    27   16   39 1
    28   16   40 1
    29   17   22 ar
    30   17   18 ar
    31   18   19 ar
    32   18   41 1
    33   19   20 ar
    34   19   42 1
    35   20   21 ar
    36   20   43 1
    37   21   22 ar
    38   21   23 1
    39   22   44 1
    40   23   24 1
    41   24   29 1
    42   24   25 1
    43   24   45 1
    44   25   26 1
    45   25   46 1
    46   25   47 1
    47   26   27 1
    48   26   48 1
    49   26   49 1
    50   27   28 1
    51   27   50 1
    52   27   51 1
    53   28   29 1
    54   28   30 1
    55   28   60 1
    56   29   52 1
    57   29   53 1
    58   30   54 1
    59   30   55 1
    60   30   56 1
    61   31   57 1
    62   31   58 1
    63   31   59 1
@<TRIPOS>MOLECULE
CHEMBL576153
   60    65     0     0     0
SMALL
USER_CHARGES

@<TRIPOS>ATOM
      1 C1         -0.0167    1.3781    0.0096 C.ar      1 <0>        -0.1224
      2 C2          1.1709    2.0855    0.0021 C.ar      1 <0>        -0.1175
      3 C3          2.3773    1.4107   -0.0130 C.ar      1 <0>        -0.1147
      4 C4          2.3960    0.0285   -0.0201 C.ar      1 <0>        -0.0855
      5 C5          1.2084   -0.6789   -0.0117 C.ar      1 <0>        -0.1170
      6 C6          0.0021   -0.0041    0.0020 C.ar      1 <0>        -0.1187
      7 C7          3.7112   -0.7071   -0.0376 C.3       1 <0>        -0.0770
      8 C8          4.1714   -0.9633    1.3989 C.3       1 <0>        -0.1290
      9 C9          5.5066   -1.7102    1.3812 C.3       1 <0>         0.1266
     10 N1          5.9472   -1.9554    2.7567 N.pl3     1 <0>        -0.3343
     11 C10         6.2620   -3.1595    3.2651 C.2       1 <0>         0.1592
     12 C11         6.6259   -2.9794    4.5745 C.2       1 <0>        -0.2663
     13 C12         6.5122   -1.5387    4.8526 C.2       1 <0>         0.3003
     14 N2          6.1098   -0.9707    3.7382 N.2       1 <0>        -0.2445
     15 N3          6.8215   -1.0943    6.0991 N.2       1 <0>        -0.4460
     16 C13         7.2117   -1.9051    7.0424 C.2       1 <0>         0.6539
     17 N4          7.3471   -3.2572    6.8767 N.pl3     1 <0>        -0.3752
     18 C14         7.0698   -3.8471    5.6725 C.2       1 <0>         0.4125
     19 N5          7.2811   -5.1385    5.7935 N.2       1 <0>        -0.5110
     20 C15         7.6881   -5.4133    7.0402 C.2       1 <0>         0.3471
     21 N6          7.7438   -4.2937    7.7346 N.2       1 <0>        -0.2928
     22 C16         8.0234   -6.7575    7.5548 C.2       1 <0>         0.0420
     23 C17         8.4319   -7.0490    8.8183 C.2       1 <0>        -0.1361
     24 C18         8.6373   -8.4422    8.8671 C.2       1 <0>        -0.2192
     25 C19         8.3470   -8.9271    7.6438 C.2       1 <0>        -0.0041
     26 O1          7.9718   -7.9073    6.8550 O.3       1 <0>        -0.1531
     27 N7          7.5061   -1.3686    8.2812 N.am      1 <0>        -0.6421
     28 C20         7.3864   -0.0420    8.4867 C.2       1 <0>         0.5098
     29 O2          7.0204    0.6807    7.5844 O.2       1 <0>        -0.4160
     30 C21         7.7076    0.5431    9.8378 C.3       1 <0>         0.0481
     31 O3          7.5052    1.9573    9.8047 O.3       1 <0>        -0.2847
     32 C22         7.7521    2.6431   10.9520 C.ar      1 <0>         0.1334
     33 C23         8.1858    1.9691   12.0843 C.ar      1 <0>        -0.1987
     34 C24         8.4362    2.6677   13.2494 C.ar      1 <0>        -0.0681
     35 C25         8.2543    4.0388   13.2876 C.ar      1 <0>        -0.0709
     36 C26         7.8214    4.7128   12.1594 C.ar      1 <0>        -0.0680
     37 C27         7.5762    4.0185   10.9905 C.ar      1 <0>        -0.1317
     38 Cl1         8.5691    4.9146   14.7531 Cl        1 <0>        -0.0670
     39 H1         -0.9591    1.9053    0.0259 H         1 <0>         0.1216
     40 H2          1.1563    3.1654    0.0076 H         1 <0>         0.1227
     41 H3          3.3051    1.9634   -0.0196 H         1 <0>         0.1224
     42 H4          1.2231   -1.7588   -0.0176 H         1 <0>         0.1208
     43 H5         -0.9258   -0.5567    0.0082 H         1 <0>         0.1219
     44 H6          3.5884   -1.6586   -0.5549 H         1 <0>         0.0773
     45 H7          4.4573   -0.1052   -0.5563 H         1 <0>         0.0790
     46 H8          4.2941   -0.0118    1.9163 H         1 <0>         0.0859
     47 H9          3.4252   -1.5652    1.9176 H         1 <0>         0.0737
     48 H10         5.3838   -2.6617    0.8639 H         1 <0>         0.1100
     49 H11         6.2527   -1.1082    0.8625 H         1 <0>         0.1004
     50 H12         6.2328   -4.1009    2.7365 H         1 <0>         0.2013
     51 H13         8.5722   -6.3483    9.6280 H         1 <0>         0.1606
     52 H14         8.9652   -9.0133    9.7230 H         1 <0>         0.1597
     53 H15         8.4034   -9.9642    7.3479 H         1 <0>         0.2141
     54 H16         7.7990   -1.9468    9.0029 H         1 <0>         0.4319
     55 H17         7.0548    0.1002   10.5900 H         1 <0>         0.1053
     56 H18         8.7469    0.3306   10.0881 H         1 <0>         0.1053
     57 H19         8.3272    0.8988   12.0550 H         1 <0>         0.1384
     58 H20         8.7739    2.1433   14.1311 H         1 <0>         0.1386
     59 H21         7.6796    5.7830   12.1913 H         1 <0>         0.1432
     60 H22         7.2429    4.5456   10.1088 H         1 <0>         0.1447
@<TRIPOS>BOND
     1    1    6 ar
     2    1    2 ar
     3    1   39 1
     4    2    3 ar
     5    2   40 1
     6    3    4 ar
     7    3   41 1
     8    4    5 ar
     9    4    7 1
    10    5    6 ar
    11    5   42 1
    12    6   43 1
    13    7    8 1
    14    7   44 1
    15    7   45 1
    16    8    9 1
    17    8   46 1
    18    8   47 1
    19    9   10 1
    20    9   48 1
    21    9   49 1
    22   10   14 1
    23   10   11 1
    24   11   12 2
    25   11   50 1
    26   12   18 1
    27   12   13 1
    28   13   14 2
    29   13   15 1
    30   15   16 2
    31   16   17 1
    32   16   27 1
    33   17   21 1
    34   17   18 1
    35   18   19 2
    36   19   20 1
    37   20   21 2
    38   20   22 1
    39   22   26 1
    40   22   23 2
    41   23   24 1
    42   23   51 1
    43   24   25 2
    44   24   52 1
    45   25   26 1
    46   25   53 1
    47   27   28 am
    48   27   54 1
    49   28   29 2
    50   28   30 1
    51   30   31 1
    52   30   55 1
    53   30   56 1
    54   31   32 1
    55   32   37 ar
    56   32   33 ar
    57   33   34 ar
    58   33   57 1
    59   34   35 ar
    60   34   58 1
    61   35   36 ar
    62   35   38 1
    63   36   37 ar
    64   36   59 1
    65   37   60 1
@<TRIPOS>MOLECULE
CHEMBL222431
   54    59     0     0     0
SMALL
USER_CHARGES

@<TRIPOS>ATOM
      1 C1         -0.0162    1.3433    0.0094 C.2       1 <0>        -0.2193
      2 C2          1.3252    1.7744   -0.0011 C.2       1 <0>        -0.1208
      3 C3          2.0963    0.6547   -0.0144 C.2       1 <0>         0.0271
      4 O1          1.2798   -0.4167   -0.0124 O.3       1 <0>        -0.1602
      5 C4          0.0021   -0.0041    0.0020 C.2       1 <0>         0.0005
      6 C5          3.5735    0.6192   -0.0292 C.2       1 <0>         0.3447
      7 N1          4.3782    1.6975   -0.0257 N.2       1 <0>        -0.4803
      8 C6          5.6284    1.3133   -0.0438 C.2       1 <0>         0.4981
      9 N2          6.7827    2.0136   -0.0426 N.2       1 <0>        -0.5240
     10 C7          7.9149    1.3544   -0.2245 C.2       1 <0>         0.6705
     11 N3          7.9251    0.0030   -0.4737 N.pl3     1 <0>        -0.6596
     12 C8          6.8335   -0.7612   -0.0614 C.2       1 <0>         0.6285
     13 N4          5.6350   -0.0666   -0.0535 N.pl3     1 <0>        -0.4288
     14 N5          4.3125   -0.4776   -0.0421 N.2       1 <0>        -0.2728
     15 N6          6.9320   -2.0133    0.2840 N.2       1 <0>        -0.6684
     16 N7          9.1029    2.0335   -0.1638 N.pl3     1 <0>        -0.5981
     17 C9         10.3866    1.3423   -0.3661 C.3       1 <0>         0.0881
     18 C10        11.3005    1.6893    0.8113 C.3       1 <0>        -0.0206
     19 N8         11.4311    3.1501    0.9330 N.4       1 <0>        -0.3856
     20 C11        12.3915    3.4256    2.0122 C.3       1 <0>         0.0026
     21 C12        12.6152    4.9311    2.1496 C.3       1 <0>        -0.1255
     22 H1         13.3336    5.1226    2.9467 H         1 <0>         0.1325
     23 C13        11.2787    5.5987    2.4911 C.3       1 <0>        -0.1443
     24 C14        10.2734    5.2712    1.3860 C.3       1 <0>        -0.1390
     25 C15        10.1305    3.7519    1.2449 C.3       1 <0>         0.0140
     26 H2          9.7485    3.3332    2.1760 H         1 <0>         0.1501
     27 C16         9.1400    3.4780    0.0994 C.3       1 <0>         0.1093
     28 C17        13.1504    5.4926    0.8309 C.3       1 <0>         0.1051
     29 N9         13.4764    6.9108    1.0005 N.pl3     1 <0>        -0.3223
     30 C18        14.6593    7.4963    0.7365 C.2       1 <0>         0.1717
     31 N10        14.5226    8.7675    1.0253 N.2       1 <0>        -0.2916
     32 N11        13.3185    8.9530    1.4447 N.2       1 <0>        -0.0523
     33 N12        12.6820    7.8342    1.4257 N.2       1 <0>        -0.0954
     34 H3         -0.8931    1.9736    0.0252 H         1 <0>         0.1620
     35 H4          1.6735    2.7967    0.0011 H         1 <0>         0.1636
     36 H5         -0.8667   -0.6456    0.0069 H         1 <0>         0.2160
     37 H6          6.1427   -2.5028    0.5637 H         1 <0>         0.3852
     38 H7         10.2237    0.2651   -0.4012 H         1 <0>         0.1292
     39 H8         10.8427    1.6772   -1.2978 H         1 <0>         0.1141
     40 H9         10.8752    1.2862    1.7304 H         1 <0>         0.1413
     41 H10        12.2846    1.2505    0.6469 H         1 <0>         0.1549
     42 H11        12.0025    3.0313    2.9510 H         1 <0>         0.1440
     43 H12        13.3399    2.9391    1.7844 H         1 <0>         0.1418
     44 H13        10.9121    5.2172    3.4440 H         1 <0>         0.0931
     45 H14        11.4145    6.6783    2.5540 H         1 <0>         0.1238
     46 H15         9.3052    5.7042    1.6374 H         1 <0>         0.1266
     47 H16        10.6225    5.6913    0.4427 H         1 <0>         0.0902
     48 H17         9.4634    4.0037   -0.7990 H         1 <0>         0.1050
     49 H18         8.1461    3.8217    0.3858 H         1 <0>         0.1547
     50 H19        14.0476    4.9458    0.5406 H         1 <0>         0.1272
     51 H20        12.3921    5.3844    0.0554 H         1 <0>         0.0984
     52 H21        15.5486    7.0125    0.3604 H         1 <0>         0.2393
     53 H22         8.6760   -0.4109   -0.9272 H         1 <0>         0.4369
     54 H23        11.7789    3.5306    0.0656 H         1 <0>         0.4186
@<TRIPOS>BOND
     1    1    5 2
     2    1    2 1
     3    1   34 1
     4    2    3 2
     5    2   35 1
     6    3    4 1
     7    3    6 1
     8    4    5 1
     9    5   36 1
    10    6   14 2
    11    6    7 1
    12    7    8 2
    13    8   13 1
    14    8    9 1
    15    9   10 2
    16   10   11 1
    17   10   16 1
    18   11   12 1
    19   11   53 1
    20   12   13 1
    21   12   15 2
    22   13   14 1
    23   15   37 1
    24   16   27 1
    25   16   17 1
    26   17   18 1
    27   17   38 1
    28   17   39 1
    29   18   19 1
    30   18   40 1
    31   18   41 1
    32   19   25 1
    33   19   20 1
    34   19   54 1
    35   20   21 1
    36   20   42 1
    37   20   43 1
    38   21   22 1
    39   21   23 1
    40   21   28 1
    41   23   24 1
    42   23   44 1
    43   23   45 1
    44   24   25 1
    45   24   46 1
    46   24   47 1
    47   25   26 1
    48   25   27 1
    49   27   48 1
    50   27   49 1
    51   28   29 1
    52   28   50 1
    53   28   51 1
    54   29   33 1
    55   29   30 1
    56   30   31 2
    57   30   52 1
    58   31   32 1
    59   32   33 2
@<TRIPOS>MOLECULE
CHEMBL1095488
   52    56     0     0     0
SMALL
USER_CHARGES

@<TRIPOS>ATOM
      1 C1         -0.0360    1.2057   -0.4097 C.ar      1 <0>        -0.0934
      2 C2          1.1582    1.8935   -0.5315 C.ar      1 <0>        -0.1344
      3 C3          2.3542    1.2059   -0.5561 C.ar      1 <0>        -0.0662
      4 C4          2.3577   -0.1853   -0.4574 C.ar      1 <0>        -0.0800
      5 C5          1.1505   -0.8730   -0.3344 C.ar      1 <0>        -0.0591
      6 C6         -0.0391   -0.1743   -0.3115 C.ar      1 <0>        -0.1274
      7 C7          3.6381   -0.9295   -0.4837 C.ar      1 <0>         0.3401
      8 C8          3.8054   -2.0953    0.2790 C.ar      1 <0>        -0.3425
      9 C9          5.0418   -2.7680    0.2208 C.ar      1 <0>         0.3052
     10 N1          5.9997   -2.2763   -0.5510 N.ar      1 <0>        -0.5597
     11 C10         5.8022   -1.1690   -1.2589 C.ar      1 <0>         0.6019
     12 N2          4.6548   -0.5093   -1.2367 N.ar      1 <0>        -0.5688
     13 N3          6.8279   -0.6928   -2.0486 N.pl3     1 <0>        -0.8044
     14 C11         4.9719   -3.9587    1.1056 C.ar      1 <0>         0.0046
     15 C12         5.8985   -4.9436    1.4075 C.ar      1 <0>        -0.1000
     16 C13         5.5630   -5.9685    2.2901 C.ar      1 <0>         0.1643
     17 C14         4.3034   -6.0081    2.8694 C.ar      1 <0>        -0.2056
     18 C15         3.3712   -5.0300    2.5742 C.ar      1 <0>        -0.0043
     19 C16         3.6958   -4.0027    1.6953 C.ar      1 <0>        -0.1917
     20 C17         2.9253   -2.8385    1.1970 C.2       1 <0>         0.4681
     21 O1          1.7818   -2.5509    1.4912 O.2       1 <0>        -0.4185
     22 O2          6.4723   -6.9321    2.5837 O.3       1 <0>        -0.2881
     23 C18         6.0636   -7.9535    3.4958 C.3       1 <0>         0.0621
     24 C19         7.2128   -8.9422    3.7024 C.3       1 <0>         0.0535
     25 N4          8.3336   -8.2594    4.3624 N.3       1 <0>        -0.5318
     26 C20         9.5884   -9.0013    4.1716 C.3       1 <0>         0.0187
     27 C21        10.7371   -8.2262    4.8224 C.3       1 <0>         0.0625
     28 O3         10.4389   -8.0132    6.2048 O.3       1 <0>        -0.3849
     29 C22         9.2236   -7.2930    6.4273 C.3       1 <0>         0.0633
     30 C23         8.0595   -8.0586    5.7927 C.3       1 <0>         0.0136
     31 H1         -0.9694    1.7486   -0.3868 H         1 <0>         0.1262
     32 H2          1.1542    2.9708   -0.6079 H         1 <0>         0.1279
     33 H3          3.2858    1.7439   -0.6520 H         1 <0>         0.1292
     34 H4          1.1468   -1.9503   -0.2579 H         1 <0>         0.1355
     35 H5         -0.9745   -0.7057   -0.2163 H         1 <0>         0.1287
     36 H6          7.6749   -1.1646   -2.0802 H         1 <0>         0.4198
     37 H7          6.7023    0.1139   -2.5724 H         1 <0>         0.4208
     38 H8          6.8805   -4.9172    0.9586 H         1 <0>         0.1477
     39 H9          4.0497   -6.8051    3.5526 H         1 <0>         0.1421
     40 H10         2.3911   -5.0639    3.0267 H         1 <0>         0.1428
     41 H11         5.7967   -7.5018    4.4512 H         1 <0>         0.0680
     42 H12         5.2002   -8.4798    3.0888 H         1 <0>         0.0734
     43 H13         6.8730   -9.7690    4.3262 H         1 <0>         0.0645
     44 H14         7.5396   -9.3265    2.7362 H         1 <0>         0.0904
     45 H15         9.5041   -9.9843    4.6349 H         1 <0>         0.0443
     46 H16         9.7848   -9.1162    3.1056 H         1 <0>         0.0892
     47 H17        11.6597   -8.7998    4.7333 H         1 <0>         0.0996
     48 H18        10.8561   -7.2645    4.3234 H         1 <0>         0.0618
     49 H19         9.0515   -7.1916    7.4988 H         1 <0>         0.0991
     50 H20         9.2985   -6.3041    5.9749 H         1 <0>         0.0612
     51 H21         7.1398   -7.4854    5.9101 H         1 <0>         0.0853
     52 H22         7.9508   -9.0266    6.2819 H         1 <0>         0.0454
@<TRIPOS>BOND
     1    1    6 ar
     2    1    2 ar
     3    1   31 1
     4    2    3 ar
     5    2   32 1
     6    3    4 ar
     7    3   33 1
     8    4    5 ar
     9    4    7 1
    10    5    6 ar
    11    5   34 1
    12    6   35 1
    13    7   12 ar
    14    7    8 ar
    15    8   20 1
    16    8    9 ar
    17    9   10 ar
    18    9   14 1
    19   10   11 ar
    20   11   12 ar
    21   11   13 1
    22   13   36 1
    23   13   37 1
    24   14   19 ar
    25   14   15 ar
    26   15   16 ar
    27   15   38 1
    28   16   17 ar
    29   16   22 1
    30   17   18 ar
    31   17   39 1
    32   18   19 ar
    33   18   40 1
    34   19   20 1
    35   20   21 2
    36   22   23 1
    37   23   24 1
    38   23   41 1
    39   23   42 1
    40   24   25 1
    41   24   43 1
    42   24   44 1
    43   25   30 1
    44   25   26 1
    45   26   27 1
    46   26   45 1
    47   26   46 1
    48   27   28 1
    49   27   47 1
    50   27   48 1
    51   28   29 1
    52   29   30 1
    53   29   49 1
    54   29   50 1
    55   30   51 1
    56   30   52 1
@<TRIPOS>MOLECULE
CHEMBL85864
   40    44     0     0     0
SMALL
USER_CHARGES

@<TRIPOS>ATOM
      1 C1         -0.0167    1.3781    0.0096 C.ar      1 <0>        -0.1177
      2 C2          1.1709    2.0855    0.0021 C.ar      1 <0>        -0.1173
      3 C3          2.3773    1.4107   -0.0130 C.ar      1 <0>        -0.1113
      4 C4          2.3960    0.0285   -0.0201 C.ar      1 <0>        -0.0881
      5 C5          1.2084   -0.6789   -0.0117 C.ar      1 <0>        -0.1115
      6 C6          0.0021   -0.0041    0.0020 C.ar      1 <0>        -0.1182
      7 C7          3.7112   -0.7071   -0.0376 C.3       1 <0>        -0.0948
      8 C8          4.1714   -0.9633    1.3989 C.3       1 <0>         0.1353
      9 N1          5.4498   -1.6784    1.3820 N.pl3     1 <0>        -0.3571
     10 C9          5.6273   -3.0331    1.3678 C.2       1 <0>         0.3403
     11 C10         7.0122   -3.2411    1.3542 C.2       1 <0>        -0.0792
     12 C11         7.4927   -4.6244    1.3377 C.2       1 <0>         0.4102
     13 N2          8.6851   -5.1838    1.3226 N.2       1 <0>        -0.4895
     14 C12         8.5561   -6.5164    1.3116 C.2       1 <0>         0.3518
     15 N3          7.2739   -6.8295    1.3196 N.2       1 <0>        -0.2859
     16 N4          6.5575   -5.6258    1.3365 N.pl3     1 <0>        -0.3713
     17 C13         5.2282   -5.3187    1.3505 C.2       1 <0>         0.6976
     18 N5          4.7949   -4.0817    1.3656 N.2       1 <0>        -0.5537
     19 N6          4.3104   -6.3433    1.3486 N.pl3     1 <0>        -0.7946
     20 C14         9.6731   -7.4840    1.2935 C.2       1 <0>         0.0382
     21 C15         9.5553   -8.8382    1.2768 C.2       1 <0>        -0.1328
     22 C16        10.8643   -9.3594    1.2624 C.2       1 <0>        -0.2207
     23 C17        11.7077   -8.3085    1.2710 C.2       1 <0>         0.0002
     24 O1         10.9847   -7.1771    1.2847 O.3       1 <0>        -0.1509
     25 N7          7.6128   -2.0434    1.3604 N.2       1 <0>        -0.1603
     26 N8          6.7305   -1.1058    1.3709 N.2       1 <0>        -0.0255
     27 H1         -0.9591    1.9053    0.0259 H         1 <0>         0.1231
     28 H2          1.1563    3.1654    0.0076 H         1 <0>         0.1245
     29 H3          3.3051    1.9634   -0.0196 H         1 <0>         0.1250
     30 H4          1.2231   -1.7588   -0.0176 H         1 <0>         0.1234
     31 H5         -0.9258   -0.5567    0.0082 H         1 <0>         0.1237
     32 H6          3.5884   -1.6586   -0.5549 H         1 <0>         0.0821
     33 H7          4.4573   -0.1052   -0.5563 H         1 <0>         0.0866
     34 H8          4.2941   -0.0118    1.9163 H         1 <0>         0.1120
     35 H9          3.4252   -1.5652    1.9176 H         1 <0>         0.1080
     36 H10         4.6125   -7.2650    1.3374 H         1 <0>         0.4288
     37 H11         3.3611   -6.1441    1.3584 H         1 <0>         0.4328
     38 H12         8.6360   -9.4050    1.2748 H         1 <0>         0.1611
     39 H13        11.1396  -10.4036    1.2480 H         1 <0>         0.1604
     40 H14        12.7861   -8.3665    1.2640 H         1 <0>         0.2151
@<TRIPOS>BOND
     1    1    6 ar
     2    1    2 ar
     3    1   27 1
     4    2    3 ar
     5    2   28 1
     6    3    4 ar
     7    3   29 1
     8    4    5 ar
     9    4    7 1
    10    5    6 ar
    11    5   30 1
    12    6   31 1
    13    7    8 1
    14    7   32 1
    15    7   33 1
    16    8    9 1
    17    8   34 1
    18    8   35 1
    19    9   26 1
    20    9   10 1
    21   10   18 1
    22   10   11 2
    23   11   12 1
    24   11   25 1
    25   12   16 1
    26   12   13 2
    27   13   14 1
    28   14   15 2
    29   14   20 1
    30   15   16 1
    31   16   17 1
    32   17   18 2
    33   17   19 1
    34   19   36 1
    35   19   37 1
    36   20   24 1
    37   20   21 2
    38   21   22 1
    39   21   38 1
    40   22   23 2
    41   22   39 1
    42   23   24 1
    43   23   40 1
    44   25   26 2
@<TRIPOS>MOLECULE
CHEMBL273094
   60    62     0     0     0
SMALL
USER_CHARGES

@<TRIPOS>ATOM
      1 C1         -0.0187    1.5258    0.0104 C.3       1 <0>        -0.1471
      2 C2          0.0021   -0.0041    0.0020 C.3       1 <0>        -0.1387
      3 C3          0.7421   -0.5109    1.2415 C.3       1 <0>         0.1191
      4 N1          0.7619   -1.9757    1.2335 N.am      1 <0>        -0.5089
      5 C4         -0.2660   -2.6852    1.8352 C.2       1 <0>         0.3304
      6 C5         -0.2227   -4.0758    1.8133 C.2       1 <0>        -0.1422
      7 C6          0.8615   -4.7197    1.1820 C.2       1 <0>         0.5924
      8 O1          0.9214   -5.9360    1.1495 O.2       1 <0>        -0.5083
      9 N2          1.8315   -3.9736    0.6140 N.am      1 <0>        -0.5477
     10 C7          1.7755   -2.6309    0.6370 C.2       1 <0>         0.7072
     11 O2          2.6654   -1.9916    0.1098 O.2       1 <0>        -0.5249
     12 C8          2.9605   -4.6372   -0.0428 C.3       1 <0>         0.1129
     13 C9          2.6266   -4.8717   -1.5174 C.3       1 <0>        -0.1374
     14 C10         3.8056   -5.5648   -2.2033 C.3       1 <0>        -0.1480
     15 N3         -1.3547   -4.5134    2.4751 N.pl3     1 <0>        -0.5145
     16 H1         -1.6145   -5.4351    2.6295 H         1 <0>         0.4367
     17 C11        -2.0346   -3.4010    2.8692 C.2       1 <0>         0.3401
     18 N4         -1.3747   -2.3269    2.4814 N.2       1 <0>        -0.4837
     19 C12        -3.3101   -3.3980    3.6137 C.ar      1 <0>        -0.0657
     20 C13        -3.9128   -4.6051    3.9751 C.ar      1 <0>        -0.0542
     21 C14        -5.1027   -4.5980    4.6695 C.ar      1 <0>        -0.1387
     22 C15        -5.7034   -3.3923    5.0099 C.ar      1 <0>         0.1457
     23 C16        -5.1073   -2.1895    4.6519 C.ar      1 <0>        -0.2098
     24 C17        -3.9140   -2.1879    3.9633 C.ar      1 <0>        -0.0207
     25 O3         -6.8764   -3.3895    5.6940 O.3       1 <0>        -0.2870
     26 C18        -7.4391   -2.1150    6.0117 C.3       1 <0>         0.0400
     27 C19        -8.7293   -2.3094    6.7658 C.2       1 <0>         0.5236
     28 O4         -9.1277   -3.4291    7.0073 O.2       1 <0>        -0.4949
     29 N5         -9.4404   -1.2389    7.1718 N.am      1 <0>        -0.7330
     30 C20       -10.6947   -1.4279    7.9048 C.3       1 <0>         0.0930
     31 C21       -11.2971   -0.0632    8.2450 C.3       1 <0>        -0.0193
     32 N6        -12.5548   -0.2527    8.9800 N.4       1 <0>        -0.6320
     33 H2          1.0039    1.9031    0.0027 H         1 <0>         0.0600
     34 H3         -0.5459    1.8868   -0.8726 H         1 <0>         0.0609
     35 H4         -0.5289    1.8773    0.9072 H         1 <0>         0.0576
     36 H5         -1.0205   -0.3814    0.0098 H         1 <0>         0.0670
     37 H6          0.5123   -0.3556   -0.8948 H         1 <0>         0.0690
     38 H7          1.7647   -0.1336    1.2338 H         1 <0>         0.1016
     39 H8          0.2319   -0.1594    2.1383 H         1 <0>         0.0980
     40 H9          3.8466   -4.0071    0.0334 H         1 <0>         0.1045
     41 H10         3.1521   -5.5940    0.4430 H         1 <0>         0.1025
     42 H11         1.7404   -5.5018   -1.5935 H         1 <0>         0.0669
     43 H12         2.4349   -3.9149   -2.0031 H         1 <0>         0.0692
     44 H13         3.5678   -5.7318   -3.2538 H         1 <0>         0.0622
     45 H14         4.6918   -4.9347   -2.1271 H         1 <0>         0.0604
     46 H15         3.9973   -6.5215   -1.7175 H         1 <0>         0.0594
     47 H16        -3.4469   -5.5427    3.7102 H         1 <0>         0.1344
     48 H17        -5.5694   -5.5309    4.9493 H         1 <0>         0.1444
     49 H18        -5.5777   -1.2543    4.9178 H         1 <0>         0.1367
     50 H19        -3.4487   -1.2525    3.6898 H         1 <0>         0.1478
     51 H20        -6.7387   -1.5523    6.6290 H         1 <0>         0.1028
     52 H21        -7.6354   -1.5649    5.0914 H         1 <0>         0.1028
     53 H22        -9.1218   -0.3433    6.9786 H         1 <0>         0.4114
     54 H23       -11.3950   -1.9906    7.2875 H         1 <0>         0.0931
     55 H24       -10.4983   -1.9780    8.8251 H         1 <0>         0.0931
     56 H25       -10.5968    0.4994    8.8622 H         1 <0>         0.1426
     57 H26       -11.4935    0.4868    7.3247 H         1 <0>         0.1426
     58 H27       -13.2031   -0.7736    8.4086 H         1 <0>         0.4398
     59 H28       -12.3731   -0.7620    9.8319 H         1 <0>         0.4398
     60 H29       -12.9521    0.6472    9.2044 H         1 <0>         0.4453
@<TRIPOS>BOND
     1    1    2 1
     2    1   33 1
     3    1   34 1
     4    1   35 1
     5    2    3 1
     6    2   36 1
     7    2   37 1
     8    3    4 1
     9    3   38 1
    10    3   39 1
    11    4   10 am
    12    4    5 1
    13    5   18 1
    14    5    6 2
    15    6    7 1
    16    6   15 1
    17    7    8 2
    18    7    9 am
    19    9   10 am
    20    9   12 1
    21   10   11 2
    22   12   13 1
    23   12   40 1
    24   12   41 1
    25   13   14 1
    26   13   42 1
    27   13   43 1
    28   14   44 1
    29   14   45 1
    30   14   46 1
    31   15   16 1
    32   15   17 1
    33   17   18 2
    34   17   19 1
    35   19   24 ar
    36   19   20 ar
    37   20   21 ar
    38   20   47 1
    39   21   22 ar
    40   21   48 1
    41   22   23 ar
    42   22   25 1
    43   23   24 ar
    44   23   49 1
    45   24   50 1
    46   25   26 1
    47   26   27 1
    48   26   51 1
    49   26   52 1
    50   27   28 2
    51   27   29 am
    52   29   30 1
    53   29   53 1
    54   30   31 1
    55   30   54 1
    56   30   55 1
    57   31   32 1
    58   31   56 1
    59   31   57 1
    60   32   58 1
    61   32   59 1
    62   32   60 1
@<TRIPOS>MOLECULE
CHEMBL483261
   61    65     0     0     0
SMALL
USER_CHARGES

@<TRIPOS>ATOM
      1 C1         -0.0187    1.5258    0.0104 C.3       1 <0>        -0.1682
      2 C2          0.0021   -0.0041    0.0020 C.3       1 <0>         0.1092
      3 N1         -1.3723   -0.5112    0.0124 N.am      1 <0>        -0.5466
      4 C3         -1.9862   -0.7421    1.1914 C.2       1 <0>         0.5941
      5 O1         -1.4042   -0.5314    2.2405 O.2       1 <0>        -0.5042
      6 C4         -3.3102   -1.2301    1.1954 C.2       1 <0>        -0.1324
      7 C5         -3.9509   -1.4613   -0.0177 C.2       1 <0>         0.3237
      8 N2         -3.2650   -1.2043   -1.1947 N.am      1 <0>        -0.6111
      9 H1         -3.6957   -1.3592   -2.0499 H         1 <0>         0.4408
     10 C6         -2.0043   -0.7339   -1.1527 C.2       1 <0>         0.7132
     11 O2         -1.4207   -0.5094   -2.1956 O.2       1 <0>        -0.5257
     12 N3         -5.1748   -1.9130    0.2534 N.2       1 <0>        -0.4738
     13 C7         -5.3478   -1.9817    1.5584 C.2       1 <0>         0.3249
     14 N4         -4.2130   -1.5663    2.1854 N.pl3     1 <0>        -0.5076
     15 H2         -4.0664   -1.5165    3.1429 H         1 <0>         0.4390
     16 C8         -6.5806   -2.4378    2.2349 C.ar      1 <0>         0.0230
     17 C9         -6.6475   -2.4610    3.6290 C.ar      1 <0>        -0.1204
     18 C10        -7.8012   -2.8873    4.2540 C.ar      1 <0>        -0.0153
     19 C11        -8.8902   -3.2911    3.5022 C.ar      1 <0>        -0.6633
     20 C12        -8.8304   -3.2705    2.1200 C.ar      1 <0>        -0.0174
     21 C13        -7.6847   -2.8415    1.4825 C.ar      1 <0>        -0.0855
     22 S1        -10.3596   -3.8347    4.3085 S.o2      1 <0>         2.6877
     23 O3        -11.0411   -4.6751    3.3875 O.2       1 <0>        -0.9458
     24 O4         -9.9728   -4.2779    5.6021 O.2       1 <0>        -0.9473
     25 N5        -11.3173   -2.5022    4.5315 N.pl3     1 <0>        -0.9965
     26 C14       -11.2081   -1.6900    5.7528 C.3       1 <0>         0.1250
     27 C15       -11.0429   -0.2214    5.3476 C.3       1 <0>         0.0402
     28 N6        -12.1363    0.1598    4.4437 N.3       1 <0>        -0.5286
     29 C16       -12.0913   -0.6149    3.1964 C.3       1 <0>         0.0337
     30 C17       -12.2953   -2.0961    3.5108 C.3       1 <0>         0.1252
     31 C18       -12.1129    1.6026    4.1683 C.3       1 <0>         0.0938
     32 C19       -13.3759    1.9969    3.4469 C.ar      1 <0>        -0.0767
     33 C20       -13.4219    1.9630    2.0656 C.ar      1 <0>        -0.1035
     34 C21       -14.5800    2.3245    1.4034 C.ar      1 <0>        -0.1102
     35 C22       -15.6933    2.7203    2.1232 C.ar      1 <0>        -0.0328
     36 C23       -15.6466    2.7540    3.5055 C.ar      1 <0>        -0.1099
     37 C24       -14.4898    2.3869    4.1668 C.ar      1 <0>        -0.0835
     38 Cl1       -17.1480    3.1750    1.2921 Cl        1 <0>        -0.0687
     39 H3          1.0039    1.9031    0.0027 H         1 <0>         0.0815
     40 H4         -0.5459    1.8868   -0.8726 H         1 <0>         0.0635
     41 H5         -0.5289    1.8773    0.9072 H         1 <0>         0.0609
     42 H6          0.5123   -0.3556   -0.8948 H         1 <0>         0.1057
     43 H7          0.5293   -0.3651    0.8851 H         1 <0>         0.1033
     44 H8         -5.7980   -2.1464    4.2169 H         1 <0>         0.1342
     45 H9         -7.8542   -2.9061    5.3325 H         1 <0>         0.1496
     46 H10        -9.6840   -3.5870    1.5390 H         1 <0>         0.1509
     47 H11        -7.6409   -2.8216    0.4035 H         1 <0>         0.1531
     48 H12       -12.1119   -1.8052    6.3512 H         1 <0>         0.0880
     49 H13       -10.3405   -2.0105    6.3294 H         1 <0>         0.0951
     50 H14       -11.0711    0.4070    6.2378 H         1 <0>         0.0917
     51 H15       -10.0879   -0.0897    4.8390 H         1 <0>         0.0410
     52 H16       -12.8798   -0.2720    2.5265 H         1 <0>         0.0948
     53 H17       -11.1217   -0.4777    2.7178 H         1 <0>         0.0407
     54 H18       -12.1460   -2.6851    2.6058 H         1 <0>         0.0952
     55 H19       -13.3055   -2.2512    3.8895 H         1 <0>         0.0870
     56 H20       -12.0450    2.1508    5.1080 H         1 <0>         0.0891
     57 H21       -11.2499    1.8398    3.5461 H         1 <0>         0.0468
     58 H22       -12.5527    1.6544    1.5039 H         1 <0>         0.1283
     59 H23       -14.6157    2.2984    0.3243 H         1 <0>         0.1336
     60 H24       -16.5153    3.0632    4.0679 H         1 <0>         0.1341
     61 H25       -14.4547    2.4086    5.2460 H         1 <0>         0.1333
@<TRIPOS>BOND
     1    1    2 1
     2    1   39 1
     3    1   40 1
     4    1   41 1
     5    2    3 1
     6    2   42 1
     7    2   43 1
     8    3   10 am
     9    3    4 am
    10    4    5 2
    11    4    6 1
    12    6   14 1
    13    6    7 2
    14    7    8 1
    15    7   12 1
    16    8    9 1
    17    8   10 am
    18   10   11 2
    19   12   13 2
    20   13   14 1
    21   13   16 1
    22   14   15 1
    23   16   21 ar
    24   16   17 ar
    25   17   18 ar
    26   17   44 1
    27   18   19 ar
    28   18   45 1
    29   19   20 ar
    30   19   22 1
    31   20   21 ar
    32   20   46 1
    33   21   47 1
    34   22   23 2
    35   22   24 2
    36   22   25 1
    37   25   30 1
    38   25   26 1
    39   26   27 1
    40   26   48 1
    41   26   49 1
    42   27   28 1
    43   27   50 1
    44   27   51 1
    45   28   29 1
    46   28   31 1
    47   29   30 1
    48   29   52 1
    49   29   53 1
    50   30   54 1
    51   30   55 1
    52   31   32 1
    53   31   56 1
    54   31   57 1
    55   32   37 ar
    56   32   33 ar
    57   33   34 ar
    58   33   58 1
    59   34   35 ar
    60   34   59 1
    61   35   36 ar
    62   35   38 1
    63   36   37 ar
    64   36   60 1
    65   37   61 1
@<TRIPOS>MOLECULE
CHEMBL487569
   48    50     0     0     0
SMALL
USER_CHARGES

@<TRIPOS>ATOM
      1 C1         -0.2213    1.6554   -0.8165 C.3       1 <0>        -0.0740
      2 C2         -0.0896    0.1724   -0.5836 C.2       1 <0>         0.0919
      3 C3         -0.2436   -0.8259   -1.5530 C.2       1 <0>        -0.2639
      4 C4         -0.0484   -2.0227   -0.9543 C.2       1 <0>         0.1202
      5 N1          0.2215   -1.7872    0.3569 N.pl3     1 <0>        -0.3197
      6 N2          0.1935   -0.4009    0.5572 N.2       1 <0>        -0.2601
      7 C5          0.4837   -2.7530    1.3286 C.ar      1 <0>         0.6011
      8 N3          0.5935   -2.3802    2.5921 N.ar      1 <0>        -0.5220
      9 C6          0.8435   -3.2742    3.5481 C.ar      1 <0>         0.2714
     10 C7          0.9889   -4.6157    3.1985 C.ar      1 <0>        -0.2712
     11 C8          0.8657   -4.9663    1.8561 C.ar      1 <0>         0.4396
     12 N4          0.6103   -4.0175    0.9608 N.ar      1 <0>        -0.5316
     13 N5          1.0031   -6.2920    1.4584 N.am      1 <0>        -0.6542
     14 C9          0.9874   -6.6076    0.1482 C.2       1 <0>         0.5013
     15 O1          0.7609   -5.7506   -0.6793 O.2       1 <0>        -0.4678
     16 C10         1.2514   -8.0256   -0.2884 C.3       1 <0>        -0.1687
     17 C11         0.9658   -2.8479    4.9636 C.ar      1 <0>         0.0147
     18 C12         1.2330   -3.7890    5.9555 C.ar      1 <0>        -0.1583
     19 C13         1.3466   -3.3875    7.2767 C.ar      1 <0>         0.1621
     20 C14         1.1942   -2.0503    7.6124 C.ar      1 <0>        -0.2777
     21 C15         0.9277   -1.1109    6.6273 C.ar      1 <0>         0.1622
     22 C16         0.8195   -1.5048    5.3033 C.ar      1 <0>        -0.1329
     23 O2          0.7786    0.1983    6.9604 O.3       1 <0>        -0.3083
     24 C17         0.9092    0.5349    8.3430 C.3       1 <0>         0.0250
     25 O3          1.6072   -4.3050    8.2449 O.3       1 <0>        -0.3114
     26 C18         1.7114   -3.8216    9.5856 C.3       1 <0>         0.0253
     27 C19        -0.1179   -3.3728   -1.6200 C.3       1 <0>        -0.0816
     28 H1          0.7491    2.0672   -1.0937 H         1 <0>         0.0817
     29 H2         -0.9353    1.8350   -1.6204 H         1 <0>         0.0821
     30 H3         -0.5730    2.1367    0.0960 H         1 <0>         0.0767
     31 H4         -0.4776   -0.6681   -2.5955 H         1 <0>         0.1586
     32 H5          1.1923   -5.3645    3.9497 H         1 <0>         0.1596
     33 H6          1.1102   -6.9894    2.1241 H         1 <0>         0.4253
     34 H7          1.4328   -8.6479    0.5880 H         1 <0>         0.0795
     35 H8          0.3859   -8.4057   -0.8311 H         1 <0>         0.1022
     36 H9          2.1265   -8.0489   -0.9379 H         1 <0>         0.1023
     37 H10         1.3511   -4.8304    5.6948 H         1 <0>         0.1398
     38 H11         1.2829   -1.7400    8.6431 H         1 <0>         0.1390
     39 H12         0.6167   -0.7721    4.5362 H         1 <0>         0.1510
     40 H13         1.9030    0.2551    8.6927 H         1 <0>         0.0563
     41 H14         0.7680    1.6082    8.4706 H         1 <0>         0.1048
     42 H15         0.1564   -0.0018    8.9203 H         1 <0>         0.0563
     43 H16         1.9209   -4.6545   10.2569 H         1 <0>         0.1046
     44 H17         2.5197   -3.0930    9.6474 H         1 <0>         0.0568
     45 H18         0.7730   -3.3487    9.8752 H         1 <0>         0.0567
     46 H19         0.8858   -3.6910   -1.9021 H         1 <0>         0.0848
     47 H20        -0.5478   -4.0973   -0.9284 H         1 <0>         0.0992
     48 H21        -0.7420   -3.3068   -2.5113 H         1 <0>         0.0714
@<TRIPOS>BOND
     1    1    2 1
     2    1   28 1
     3    1   29 1
     4    1   30 1
     5    2    6 2
     6    2    3 1
     7    3    4 2
     8    3   31 1
     9    4    5 1
    10    4   27 1
    11    5    6 1
    12    5    7 1
    13    7   12 ar
    14    7    8 ar
    15    8    9 ar
    16    9   10 ar
    17    9   17 1
    18   10   11 ar
    19   10   32 1
    20   11   12 ar
    21   11   13 1
    22   13   14 am
    23   13   33 1
    24   14   15 2
    25   14   16 1
    26   16   34 1
    27   16   35 1
    28   16   36 1
    29   17   22 ar
    30   17   18 ar
    31   18   19 ar
    32   18   37 1
    33   19   20 ar
    34   19   25 1
    35   20   21 ar
    36   20   38 1
    37   21   22 ar
    38   21   23 1
    39   22   39 1
    40   23   24 1
    41   24   40 1
    42   24   41 1
    43   24   42 1
    44   25   26 1
    45   26   43 1
    46   26   44 1
    47   26   45 1
    48   27   46 1
    49   27   47 1
    50   27   48 1
@<TRIPOS>MOLECULE
CHEMBL606079
   56    61     0     0     0
SMALL
USER_CHARGES

@<TRIPOS>ATOM
      1 C1         -0.0166    1.3750    0.0096 C.ar      1 <0>        -0.1152
      2 C2          1.1687    2.0883    0.0021 C.ar      1 <0>        -0.1117
      3 C3          2.3801    1.4204   -0.0135 C.ar      1 <0>        -0.0946
      4 C4          2.4083    0.0417   -0.0212 C.ar      1 <0>        -0.0843
      5 C5          1.2210   -0.6848   -0.0133 C.ar      1 <0>        -0.0515
      6 C6          0.0021   -0.0041    0.0020 C.ar      1 <0>        -0.0961
      7 C7          1.5297   -2.1362   -0.0247 C.ar      1 <0>        -0.0548
      8 C8          0.6935   -3.2543   -0.0227 C.ar      1 <0>        -0.0953
      9 C9          1.2378   -4.5215   -0.0354 C.ar      1 <0>        -0.1165
     10 C10         2.6107   -4.6904   -0.0503 C.ar      1 <0>        -0.1096
     11 C11         3.4454   -3.5871   -0.0524 C.ar      1 <0>        -0.0946
     12 C12         2.9100   -2.3164   -0.0397 C.ar      1 <0>        -0.0892
     13 C13         3.5470   -0.9484   -0.0383 C.3       1 <0>        -0.0210
     14 C14         4.4161   -0.7733    1.2086 C.3       1 <0>         0.1488
     15 N1          5.5812   -1.6570    1.1199 N.pl3     1 <0>        -0.6944
     16 C15         6.5166   -1.6733    2.1397 C.ar      1 <0>         0.5068
     17 C16         7.6433   -2.5105    2.0686 C.ar      1 <0>        -0.1013
     18 C17         8.5580   -2.4833    3.1346 C.ar      1 <0>         0.3090
     19 N2          8.3275   -1.6735    4.1631 N.ar      1 <0>        -0.5630
     20 C18         7.2583   -0.9063    4.1864 C.ar      1 <0>         0.3614
     21 N3          6.3732   -0.8938    3.2062 N.ar      1 <0>        -0.5885
     22 N4          9.5435   -3.3811    2.8103 N.pl3     1 <0>        -0.4635
     23 C19         9.2240   -3.9187    1.5991 C.2       1 <0>         0.2818
     24 N5          8.1089   -3.4067    1.1657 N.2       1 <0>        -0.4685
     25 C20        10.7230   -3.7025    3.6175 C.3       1 <0>         0.3142
     26 C21        11.8504   -2.6895    3.3240 C.3       1 <0>         0.0769
     27 H1         11.9082   -1.9353    4.1089 H         1 <0>         0.0987
     28 C22        13.1144   -3.5919    3.3306 C.3       1 <0>         0.0474
     29 H2         13.4827   -3.7448    4.3450 H         1 <0>         0.0934
     30 C23        12.5412   -4.9051    2.7407 C.3       1 <0>         0.0514
     31 H3         12.5126   -4.8502    1.6525 H         1 <0>         0.0983
     32 O1         11.2095   -5.0042    3.2701 O.3       1 <0>        -0.3465
     33 C24        13.3836   -6.1009    3.1894 C.3       1 <0>         0.0779
     34 O2         12.9114   -7.2852    2.5440 O.3       1 <0>        -0.5628
     35 O3         14.1368   -3.0523    2.4907 O.3       1 <0>        -0.5427
     36 O4         11.6642   -2.0774    2.0463 O.3       1 <0>        -0.5345
     37 H4         -0.9603    1.9001    0.0260 H         1 <0>         0.1276
     38 H5          1.1483    3.1681    0.0081 H         1 <0>         0.1290
     39 H6          3.3044    1.9791   -0.0200 H         1 <0>         0.1267
     40 H7         -0.9256   -0.5570    0.0076 H         1 <0>         0.1234
     41 H8         -0.3789   -3.1269   -0.0107 H         1 <0>         0.1233
     42 H9          0.5895   -5.3854   -0.0335 H         1 <0>         0.1273
     43 H10         3.0316   -5.6850   -0.0598 H         1 <0>         0.1281
     44 H11         4.5170   -3.7211   -0.0640 H         1 <0>         0.1224
     45 H12         4.1482   -0.8134   -0.9375 H         1 <0>         0.1083
     46 H13         4.7498    0.2622    1.2764 H         1 <0>         0.0791
     47 H14         3.8348   -1.0264    2.0952 H         1 <0>         0.0764
     48 H15         5.6969   -2.2307    0.3464 H         1 <0>         0.4163
     49 H16         7.1007   -0.2602    5.0374 H         1 <0>         0.2026
     50 H17         9.8099   -4.6602    1.0763 H         1 <0>         0.2148
     51 H18        10.4653   -3.6746    4.6762 H         1 <0>         0.1360
     52 H19        14.4264   -5.9319    2.9208 H         1 <0>         0.0637
     53 H20        13.3012   -6.2185    4.2699 H         1 <0>         0.0592
     54 H21        13.4005   -8.0846    2.7822 H         1 <0>         0.3858
     55 H22        14.9448   -3.5829    2.4641 H         1 <0>         0.3904
     56 H23        12.3471   -1.4327    1.8157 H         1 <0>         0.3935
@<TRIPOS>BOND
     1    1    6 ar
     2    1    2 ar
     3    1   37 1
     4    2    3 ar
     5    2   38 1
     6    3    4 ar
     7    3   39 1
     8    4   13 1
     9    4    5 ar
    10    5    6 ar
    11    5    7 1
    12    6   40 1
    13    7   12 ar
    14    7    8 ar
    15    8    9 ar
    16    8   41 1
    17    9   10 ar
    18    9   42 1
    19   10   11 ar
    20   10   43 1
    21   11   12 ar
    22   11   44 1
    23   12   13 1
    24   13   14 1
    25   13   45 1
    26   14   15 1
    27   14   46 1
    28   14   47 1
    29   15   16 1
    30   15   48 1
    31   16   21 ar
    32   16   17 ar
    33   17   24 1
    34   17   18 ar
    35   18   19 ar
    36   18   22 1
    37   19   20 ar
    38   20   21 ar
    39   20   49 1
    40   22   23 1
    41   22   25 1
    42   23   24 2
    43   23   50 1
    44   25   32 1
    45   25   26 1
    46   25   51 1
    47   26   27 1
    48   26   28 1
    49   26   36 1
    50   28   29 1
    51   28   30 1
    52   28   35 1
    53   30   31 1
    54   30   32 1
    55   30   33 1
    56   33   34 1
    57   33   52 1
    58   33   53 1
    59   34   54 1
    60   35   55 1
    61   36   56 1
@<TRIPOS>MOLECULE
CHEMBL181981
   31    34     0     0     0
SMALL
USER_CHARGES

@<TRIPOS>ATOM
      1 C1         -0.0167    1.3791    0.0096 C.ar      1 <0>        -0.0983
      2 C2          1.1686    2.0924    0.0021 C.ar      1 <0>        -0.1263
      3 C3          2.3774    1.4270   -0.0129 C.ar      1 <0>        -0.0695
      4 C4          2.4026    0.0331   -0.0206 C.ar      1 <0>        -0.0639
      5 C5          1.2048   -0.6804   -0.0130 C.ar      1 <0>        -0.0802
      6 C6          0.0021   -0.0041    0.0020 C.ar      1 <0>        -0.1229
      7 C7          3.6978   -0.6876   -0.0373 C.ar      1 <0>         0.2925
      8 C8          3.8458   -1.9040    0.6416 C.ar      1 <0>        -0.0737
      9 C9          5.0951   -2.5386    0.5885 C.ar      1 <0>         0.1935
     10 C10         4.9473   -3.7719    1.3794 C.ar      1 <0>        -0.1357
     11 C11         5.8032   -4.8186    1.7105 C.ar      1 <0>        -0.0338
     12 C12         5.3440   -5.8564    2.4927 C.ar      1 <0>        -0.1450
     13 C13         4.0347   -5.8589    2.9486 C.ar      1 <0>        -0.0630
     14 C14         3.1777   -4.8283    2.6270 C.ar      1 <0>        -0.1216
     15 C15         3.6219   -3.7722    1.8396 C.ar      1 <0>         0.1073
     16 O1          3.0092   -2.6575    1.3837 O.3       1 <0>        -0.1804
     17 N1          6.0873   -1.9757   -0.0928 N.ar      1 <0>        -0.5369
     18 C16         5.9045   -0.8241   -0.7195 C.ar      1 <0>         0.5658
     19 N2          4.7397   -0.1934   -0.7022 N.ar      1 <0>        -0.5313
     20 N3          6.9615   -0.2651   -1.4211 N.pl3     1 <0>        -0.8168
     21 H1         -0.9603    1.9042    0.0260 H         1 <0>         0.1276
     22 H2          1.1478    3.1722    0.0077 H         1 <0>         0.1296
     23 H3          3.3021    1.9849   -0.0191 H         1 <0>         0.1313
     24 H4          1.2183   -1.7603   -0.0193 H         1 <0>         0.1278
     25 H5         -0.9264   -0.5557    0.0082 H         1 <0>         0.1299
     26 H6          6.8232   -4.8176    1.3555 H         1 <0>         0.1363
     27 H7          6.0058   -6.6700    2.7509 H         1 <0>         0.1381
     28 H8          3.6830   -6.6759    3.5611 H         1 <0>         0.1431
     29 H9          2.1596   -4.8413    2.9872 H         1 <0>         0.1410
     30 H10         7.8192   -0.7174   -1.4475 H         1 <0>         0.4174
     31 H11         6.8434    0.5783   -1.8855 H         1 <0>         0.4179
@<TRIPOS>BOND
     1    1    6 ar
     2    1    2 ar
     3    1   21 1
     4    2    3 ar
     5    2   22 1
     6    3    4 ar
     7    3   23 1
     8    4    5 ar
     9    4    7 1
    10    5    6 ar
    11    5   24 1
    12    6   25 1
    13    7   19 ar
    14    7    8 ar
    15    8   16 1
    16    8    9 ar
    17    9   10 1
    18    9   17 ar
    19   10   15 ar
    20   10   11 ar
    21   11   12 ar
    22   11   26 1
    23   12   13 ar
    24   12   27 1
    25   13   14 ar
    26   13   28 1
    27   14   15 ar
    28   14   29 1
    29   15   16 1
    30   17   18 ar
    31   18   19 ar
    32   18   20 1
    33   20   30 1
    34   20   31 1
@<TRIPOS>MOLECULE
CHEMBL195364
   41    45     0     0     0
SMALL
USER_CHARGES

@<TRIPOS>ATOM
      1 C1         -0.0164    1.3567    0.0095 C.ar      1 <0>        -0.1106
      2 C2          1.1686    2.0905    0.0021 C.ar      1 <0>        -0.1164
      3 C3          2.3785    1.4675   -0.0131 C.ar      1 <0>        -0.1030
      4 C4          2.4375    0.0634   -0.0211 C.ar      1 <0>        -0.0566
      5 C5          3.6681   -0.6153   -0.0364 C.ar      1 <0>        -0.0797
      6 C6          3.6865   -1.9761   -0.0434 C.ar      1 <0>        -0.1156
      7 C7          2.5015   -2.7098   -0.0357 C.ar      1 <0>        -0.0925
      8 C8          1.2917   -2.0868   -0.0209 C.ar      1 <0>        -0.1063
      9 C9          1.2327   -0.6827   -0.0133 C.ar      1 <0>        -0.0436
     10 C10         0.0021   -0.0041    0.0020 C.ar      1 <0>        -0.1094
     11 C11         5.0079   -2.7004   -0.0602 C.3       1 <0>         0.1546
     12 N1          5.4499   -2.9421    1.3155 N.pl3     1 <0>        -0.4743
     13 C12         6.2940   -2.1550    2.0422 C.2       1 <0>         0.2606
     14 N2          6.4706   -2.6668    3.2262 N.2       1 <0>        -0.4507
     15 C13         5.7544   -3.8100    3.3351 C.ar      1 <0>        -0.0880
     16 C14         5.0859   -3.9989    2.1119 C.ar      1 <0>         0.3335
     17 N3          4.3026   -5.0601    1.9594 N.ar      1 <0>        -0.5711
     18 C15         4.1464   -5.9320    2.9435 C.ar      1 <0>         0.5965
     19 N4          4.7522   -5.7964    4.1140 N.ar      1 <0>        -0.5492
     20 C16         5.5633   -4.7650    4.3538 C.ar      1 <0>         0.3620
     21 C17         6.2319   -4.6195    5.6583 C.2       1 <0>         0.0106
     22 C18         5.7161   -4.9812    6.8662 C.2       1 <0>        -0.1397
     23 C19         6.6887   -4.6656    7.8327 C.2       1 <0>        -0.2230
     24 C20         7.7401   -4.1324    7.1769 C.2       1 <0>        -0.0114
     25 O1          7.4628   -4.1108    5.8643 O.3       1 <0>        -0.1485
     26 N5          3.3195   -7.0254    2.7422 N.pl3     1 <0>        -0.8157
     27 H1         -0.9633    1.8757    0.0259 H         1 <0>         0.1250
     28 H2          1.1260    3.1696    0.0083 H         1 <0>         0.1252
     29 H3          3.2884    2.0491   -0.0194 H         1 <0>         0.1286
     30 H4          4.5943   -0.0599   -0.0428 H         1 <0>         0.1296
     31 H5          2.5441   -3.7890   -0.0419 H         1 <0>         0.1285
     32 H6          0.3816   -2.6684   -0.0154 H         1 <0>         0.1289
     33 H7         -0.9241   -0.5595    0.0082 H         1 <0>         0.1281
     34 H8          4.8935   -3.6529   -0.5777 H         1 <0>         0.1048
     35 H9          5.7491   -2.0921   -0.5784 H         1 <0>         0.1096
     36 H10         6.7489   -1.2419    1.6877 H         1 <0>         0.2238
     37 H11         4.7479   -5.4244    7.0470 H         1 <0>         0.1558
     38 H12         6.6085   -4.8206    8.8985 H         1 <0>         0.1553
     39 H13         8.6552   -3.7842    7.6327 H         1 <0>         0.2099
     40 H14         2.8672   -7.1414    1.8920 H         1 <0>         0.4162
     41 H15         3.1928   -7.6747    3.4516 H         1 <0>         0.4184
@<TRIPOS>BOND
     1    1   10 ar
     2    1    2 ar
     3    1   27 1
     4    2    3 ar
     5    2   28 1
     6    3    4 ar
     7    3   29 1
     8    4    9 ar
     9    4    5 ar
    10    5    6 ar
    11    5   30 1
    12    6    7 ar
    13    6   11 1
    14    7    8 ar
    15    7   31 1
    16    8    9 ar
    17    8   32 1
    18    9   10 ar
    19   10   33 1
    20   11   12 1
    21   11   34 1
    22   11   35 1
    23   12   16 1
    24   12   13 1
    25   13   14 2
    26   13   36 1
    27   14   15 1
    28   15   20 ar
    29   15   16 ar
    30   16   17 ar
    31   17   18 ar
    32   18   19 ar
    33   18   26 1
    34   19   20 ar
    35   20   21 1
    36   21   25 1
    37   21   22 2
    38   22   23 1
    39   22   37 1
    40   23   24 2
    41   23   38 1
    42   24   25 1
    43   24   39 1
    44   26   40 1
    45   26   41 1
@<TRIPOS>MOLECULE
CHEMBL360707
   60    65     0     0     0
SMALL
USER_CHARGES

@<TRIPOS>ATOM
      1 C1         -0.0167    1.3777   -0.0070 C.ar      1 <0>        -0.0736
      2 C2          1.1668    2.0885    0.0019 C.ar      1 <0>        -0.1455
      3 C3          2.3866    1.4125    0.0034 C.ar      1 <0>        -0.0110
      4 C4          2.4064    0.0192   -0.0042 C.ar      1 <0>        -0.1502
      5 C5          1.2130   -0.6867   -0.0131 C.ar      1 <0>         0.2138
      6 C6          0.0020   -0.0040   -0.0146 C.ar      1 <0>        -0.1788
      7 N1          1.2276   -2.0836   -0.0212 N.pl3     1 <0>        -0.6273
      8 C7         -0.0234   -2.8459    0.0908 C.3       1 <0>         0.1228
      9 C8         -0.1064   -3.8318   -1.0788 C.3       1 <0>        -0.1316
     10 C9          1.1563   -4.6961   -1.1027 C.3       1 <0>         0.0885
     11 C10         2.3830   -3.8045   -1.3087 C.3       1 <0>        -0.1296
     12 C11         2.4936   -2.8183   -0.1478 C.3       1 <0>         0.1225
     13 N2          1.0653   -5.6651   -2.2031 N.3       1 <0>        -0.5328
     14 C12        -0.1494   -6.4847   -2.0843 C.3       1 <0>         0.0139
     15 C13        -0.2348   -7.4372   -3.2798 C.3       1 <0>         0.0630
     16 O1          0.9521   -8.2331   -3.3346 O.3       1 <0>        -0.3854
     17 C14         2.1541   -7.4671   -3.4511 C.3       1 <0>         0.0632
     18 C15         2.2638   -6.5149   -2.2572 C.3       1 <0>         0.0145
     19 C16         3.6582    2.1738    0.0125 C.2       1 <0>         0.2525
     20 C17         3.6347    3.5568    0.0253 C.2       1 <0>        -0.2144
     21 C18         4.8600    4.2475    0.0341 C.2       1 <0>         0.3532
     22 N3          5.1859    5.5305    0.0467 N.2       1 <0>        -0.5240
     23 C19         6.5169    5.6546    0.0504 C.2       1 <0>         0.3537
     24 N4          7.0688    4.4545    0.0404 N.2       1 <0>        -0.3222
     25 N5          6.0239    3.5216    0.0297 N.pl3     1 <0>        -0.3615
     26 C20         5.9768    2.1606    0.0166 C.2       1 <0>         0.6526
     27 N6          4.8302    1.5201    0.0139 N.2       1 <0>        -0.5484
     28 N7          7.1508    1.4440    0.0118 N.pl3     1 <0>        -0.8084
     29 C21         7.2556    6.9347    0.0630 C.2       1 <0>         0.0367
     30 C22         6.7010    8.1757    0.0786 C.2       1 <0>        -0.1269
     31 C23         7.7672    9.0967    0.0862 C.2       1 <0>        -0.2189
     32 C24         8.9082    8.3798    0.0751 C.2       1 <0>        -0.0080
     33 O2          8.5954    7.0742    0.0669 O.3       1 <0>        -0.1608
     34 H1         -0.9602    1.9032   -0.0036 H         1 <0>         0.1289
     35 H2          1.1481    3.1683    0.0074 H         1 <0>         0.1287
     36 H3          3.3484   -0.5091   -0.0034 H         1 <0>         0.1367
     37 H4         -0.9268   -0.5550   -0.0212 H         1 <0>         0.1260
     38 H5         -0.0340   -3.3945    1.0326 H         1 <0>         0.0621
     39 H6         -0.8721   -2.1629    0.0538 H         1 <0>         0.0880
     40 H7         -0.9816   -4.4697   -0.9555 H         1 <0>         0.0752
     41 H8         -0.1871   -3.2796   -2.0151 H         1 <0>         0.0781
     42 H9          1.2496   -5.2291   -0.1565 H         1 <0>         0.0426
     43 H10         3.2797   -4.4230   -1.3490 H         1 <0>         0.0747
     44 H11         2.2789   -3.2526   -2.2428 H         1 <0>         0.0774
     45 H12         3.3052   -2.1171   -0.3422 H         1 <0>         0.0887
     46 H13         2.6929   -3.3646    0.7741 H         1 <0>         0.0609
     47 H14        -0.1098   -7.0624   -1.1608 H         1 <0>         0.0427
     48 H15        -1.0258   -5.8367   -2.0717 H         1 <0>         0.0904
     49 H16        -1.1033   -8.0860   -3.1669 H         1 <0>         0.0985
     50 H17        -0.3284   -6.8595   -4.1994 H         1 <0>         0.0601
     51 H18         3.0134   -8.1376   -3.4619 H         1 <0>         0.0984
     52 H19         2.1300   -6.8903   -4.3756 H         1 <0>         0.0601
     53 H20         3.1489   -5.8890   -2.3710 H         1 <0>         0.0895
     54 H21         2.3419   -7.0931   -1.3365 H         1 <0>         0.0427
     55 H22         2.6976    4.0936    0.0281 H         1 <0>         0.1687
     56 H23         8.0025    1.9084    0.0177 H         1 <0>         0.4242
     57 H24         7.1272    0.4744    0.0025 H         1 <0>         0.4288
     58 H25         5.6468    8.4103    0.0837 H         1 <0>         0.1633
     59 H26         7.6855   10.1736    0.0986 H         1 <0>         0.1596
     60 H27         9.9082    8.7877    0.0767 H         1 <0>         0.2133
@<TRIPOS>BOND
     1    1    6 ar
     2    1    2 ar
     3    1   34 1
     4    2    3 ar
     5    2   35 1
     6    3    4 ar
     7    3   19 1
     8    4    5 ar
     9    4   36 1
    10    5    6 ar
    11    5    7 1
    12    6   37 1
    13    7   12 1
    14    7    8 1
    15    8    9 1
    16    8   38 1
    17    8   39 1
    18    9   10 1
    19    9   40 1
    20    9   41 1
    21   10   11 1
    22   10   13 1
    23   10   42 1
    24   11   12 1
    25   11   43 1
    26   11   44 1
    27   12   45 1
    28   12   46 1
    29   13   18 1
    30   13   14 1
    31   14   15 1
    32   14   47 1
    33   14   48 1
    34   15   16 1
    35   15   49 1
    36   15   50 1
    37   16   17 1
    38   17   18 1
    39   17   51 1
    40   17   52 1
    41   18   53 1
    42   18   54 1
    43   19   27 1
    44   19   20 2
    45   20   21 1
    46   20   55 1
    47   21   25 1
    48   21   22 2
    49   22   23 1
    50   23   24 2
    51   23   29 1
    52   24   25 1
    53   25   26 1
    54   26   27 2
    55   26   28 1
    56   28   56 1
    57   28   57 1
    58   29   33 1
    59   29   30 2
    60   30   31 1
    61   30   58 1
    62   31   32 2
    63   31   59 1
    64   32   33 1
    65   32   60 1
@<TRIPOS>MOLECULE
CHEMBL611586
   58    61     0     0     0
SMALL
USER_CHARGES

@<TRIPOS>ATOM
      1 C1         -0.0187    1.5258    0.0104 C.3       1 <0>        -0.1670
      2 C2          0.0021   -0.0041    0.0020 C.3       1 <0>         0.1127
      3 N1         -1.3723   -0.5112    0.0124 N.am      1 <0>        -0.7284
      4 C3         -1.6006   -1.8394    0.0075 C.2       1 <0>         0.4957
      5 O1         -0.6682   -2.6149   -0.0056 O.2       1 <0>        -0.5066
      6 C4         -3.0144   -2.3611    0.0182 C.3       1 <0>         0.0430
      7 H1         -3.5693   -1.9423   -0.8214 H         1 <0>         0.1288
      8 C5         -3.7041   -1.9776    1.3451 C.3       1 <0>         0.0515
      9 H2         -2.9665   -1.7866    2.1246 H         1 <0>         0.0960
     10 C6         -4.5311   -3.2521    1.6670 C.3       1 <0>         0.0778
     11 H3         -4.6779   -3.3642    2.7412 H         1 <0>         0.1026
     12 C7         -3.5965   -4.3569    1.1129 C.3       1 <0>         0.3202
     13 O2         -3.0056   -3.7907   -0.0698 O.3       1 <0>        -0.3322
     14 N2         -4.3702   -5.5529    0.7708 N.pl3     1 <0>        -0.4608
     15 C8         -4.8578   -5.8739   -0.4623 C.2       1 <0>         0.2892
     16 N3         -5.4966   -7.0062   -0.4068 N.2       1 <0>        -0.4639
     17 C9         -5.4606   -7.4836    0.8608 C.ar      1 <0>        -0.0988
     18 C10        -4.7326   -6.5595    1.6307 C.ar      1 <0>         0.3130
     19 N4         -4.5454   -6.7977    2.9231 N.ar      1 <0>        -0.5439
     20 C11        -5.0363   -7.8968    3.4852 C.ar      1 <0>         0.5103
     21 N5         -5.7289   -8.7989    2.7911 N.ar      1 <0>        -0.5729
     22 C12        -5.9669   -8.6317    1.4966 C.ar      1 <0>         0.5151
     23 N6         -6.6855   -9.5750    0.7832 N.pl3     1 <0>        -0.8145
     24 C13        -4.8134   -8.1195    4.8821 C.1       1 <0>        -0.1240
     25 C14        -4.6306   -8.3020    6.0273 C.1       1 <0>         0.0641
     26 N7         -4.4080   -8.5244    7.4223 N.3       1 <0>        -0.5450
     27 C15        -5.0231   -9.7848    7.8592 C.3       1 <0>         0.0588
     28 C16        -4.7643   -9.9875    9.3535 C.3       1 <0>        -0.0796
     29 C17        -5.3952  -11.2806    9.8017 C.ar      1 <0>        -0.0953
     30 C18        -6.7006  -11.2909   10.2566 C.ar      1 <0>        -0.0827
     31 C19        -7.2805  -12.4761   10.6675 C.ar      1 <0>        -0.1512
     32 C20        -6.5534  -13.6536   10.6234 C.ar      1 <0>         0.0971
     33 C21        -5.2461  -13.6421   10.1676 C.ar      1 <0>        -0.1522
     34 C22        -4.6700  -12.4565    9.7523 C.ar      1 <0>        -0.0856
     35 F1         -7.1191  -14.8128   11.0252 F         1 <0>        -0.1392
     36 O3         -5.7828   -3.2417    0.9776 O.3       1 <0>        -0.5328
     37 O4         -4.5567   -0.8449    1.1663 O.3       1 <0>        -0.5370
     38 H4          1.0039    1.9031    0.0027 H         1 <0>         0.0783
     39 H5         -0.5459    1.8868   -0.8726 H         1 <0>         0.0639
     40 H6         -0.5289    1.8773    0.9072 H         1 <0>         0.0630
     41 H7          0.5123   -0.3556   -0.8948 H         1 <0>         0.0719
     42 H8          0.5293   -0.3651    0.8851 H         1 <0>         0.0712
     43 H9         -2.1181    0.1091    0.0229 H         1 <0>         0.3970
     44 H10        -2.8246   -4.6006    1.8429 H         1 <0>         0.1311
     45 H11        -4.7320   -5.2763   -1.3530 H         1 <0>         0.2222
     46 H12        -6.8446   -9.4481   -0.1652 H         1 <0>         0.4211
     47 H13        -7.0301  -10.3631    1.2316 H         1 <0>         0.4118
     48 H14        -3.4225   -8.5090    7.6381 H         1 <0>         0.3704
     49 H15        -6.0973   -9.7467    7.6784 H         1 <0>         0.0887
     50 H16        -4.5896  -10.6137    7.2997 H         1 <0>         0.0516
     51 H17        -3.6900  -10.0256    9.5343 H         1 <0>         0.0802
     52 H18        -5.1977   -9.1586    9.9130 H         1 <0>         0.0907
     53 H19        -7.2674  -10.3722   10.2912 H         1 <0>         0.1355
     54 H20        -8.3002  -12.4838   11.0231 H         1 <0>         0.1370
     55 H21        -4.6779  -14.5600   10.1331 H         1 <0>         0.1362
     56 H22        -3.6518  -12.4481    9.3925 H         1 <0>         0.1329
     57 H23        -6.3572   -2.5014    1.2166 H         1 <0>         0.3952
     58 H24        -4.0940   -0.0456    0.8797 H         1 <0>         0.3878
@<TRIPOS>BOND
     1    1    2 1
     2    1   38 1
     3    1   39 1
     4    1   40 1
     5    2    3 1
     6    2   41 1
     7    2   42 1
     8    3    4 am
     9    3   43 1
    10    4    5 2
    11    4    6 1
    12    6    7 1
    13    6   13 1
    14    6    8 1
    15    8    9 1
    16    8   10 1
    17    8   37 1
    18   10   11 1
    19   10   12 1
    20   10   36 1
    21   12   13 1
    22   12   14 1
    23   12   44 1
    24   14   18 1
    25   14   15 1
    26   15   16 2
    27   15   45 1
    28   16   17 1
    29   17   22 ar
    30   17   18 ar
    31   18   19 ar
    32   19   20 ar
    33   20   21 ar
    34   20   24 1
    35   21   22 ar
    36   22   23 1
    37   23   46 1
    38   23   47 1
    39   24   25 3
    40   25   26 1
    41   26   27 1
    42   26   48 1
    43   27   28 1
    44   27   49 1
    45   27   50 1
    46   28   29 1
    47   28   51 1
    48   28   52 1
    49   29   34 ar
    50   29   30 ar
    51   30   31 ar
    52   30   53 1
    53   31   32 ar
    54   31   54 1
    55   32   33 ar
    56   32   35 1
    57   33   34 ar
    58   33   55 1
    59   34   56 1
    60   36   57 1
    61   37   58 1
@<TRIPOS>MOLECULE
CHEMBL1099368
   49    53     0     0     0
SMALL
USER_CHARGES

@<TRIPOS>ATOM
      1 C1         -0.0167    1.3793    0.0096 C.ar      1 <0>        -0.0933
      2 C2          1.1685    2.0929    0.0021 C.ar      1 <0>        -0.1341
      3 C3          2.3774    1.4279   -0.0130 C.ar      1 <0>        -0.0662
      4 C4          2.4029    0.0333   -0.0207 C.ar      1 <0>        -0.0803
      5 C5          1.2046   -0.6805   -0.0131 C.ar      1 <0>        -0.0597
      6 C6          0.0021   -0.0041    0.0020 C.ar      1 <0>        -0.1272
      7 C7          3.6972   -0.6866   -0.0375 C.ar      1 <0>         0.3417
      8 C8          3.8485   -1.9053    0.6416 C.ar      1 <0>        -0.3484
      9 C9          5.0995   -2.5526    0.5963 C.ar      1 <0>         0.3084
     10 N1          6.0850   -1.9878   -0.0854 N.ar      1 <0>        -0.5616
     11 C10         5.9016   -0.8324   -0.7162 C.ar      1 <0>         0.6028
     12 N2          4.7422   -0.1938   -0.7026 N.ar      1 <0>        -0.5705
     13 N3          6.9560   -0.2811   -1.4137 N.pl3     1 <0>        -0.8042
     14 C11         5.0091   -3.8087    1.3828 C.ar      1 <0>        -0.0385
     15 C12         5.9398   -4.8012    1.6568 C.ar      1 <0>        -0.0431
     16 C13         5.5832   -5.8911    2.4363 C.ar      1 <0>        -0.0613
     17 C14         4.3040   -5.9981    2.9448 C.ar      1 <0>        -0.0979
     18 C15         3.3631   -5.0152    2.6796 C.ar      1 <0>        -0.0492
     19 C16         3.7079   -3.9189    1.9009 C.ar      1 <0>        -0.1437
     20 C17         2.9384   -2.7304    1.4536 C.2       1 <0>         0.4641
     21 O1          1.7764   -2.4848    1.7094 O.2       1 <0>        -0.4135
     22 C18         6.5980   -6.9658    2.7299 C.3       1 <0>         0.1086
     23 N4          7.3232   -6.6308    3.9628 N.3       1 <0>        -0.5357
     24 N5          8.3131   -7.6482    4.2778 N.3       1 <0>        -0.3539
     25 C19         9.6718   -7.0564    4.3762 C.3       1 <0>         0.0456
     26 C20        10.4567   -8.1061    5.2024 C.3       1 <0>        -0.1274
     27 C21         9.4076   -8.5937    6.2279 C.3       1 <0>        -0.1301
     28 C22         8.0431   -8.2598    5.5971 C.3       1 <0>         0.0093
     29 H1         -0.9604    1.9042    0.0260 H         1 <0>         0.1264
     30 H2          1.1475    3.1726    0.0078 H         1 <0>         0.1281
     31 H3          3.3020    1.9860   -0.0192 H         1 <0>         0.1292
     32 H4          1.2180   -1.7604   -0.0194 H         1 <0>         0.1349
     33 H5         -0.9264   -0.5556    0.0083 H         1 <0>         0.1288
     34 H6          7.8124   -0.7360   -1.4376 H         1 <0>         0.4198
     35 H7          6.8412    0.5615   -1.8803 H         1 <0>         0.4207
     36 H8          6.9422   -4.7247    1.2623 H         1 <0>         0.1414
     37 H9          4.0354   -6.8506    3.5509 H         1 <0>         0.1373
     38 H10         2.3631   -5.1023    3.0782 H         1 <0>         0.1415
     39 H11         6.0891   -7.9214    2.8559 H         1 <0>         0.0528
     40 H12         7.3029   -7.0360    1.9014 H         1 <0>         0.0925
     41 H13         6.6849   -6.4967    4.7326 H         1 <0>         0.3335
     42 H14        10.1126   -6.9381    3.3864 H         1 <0>         0.0849
     43 H15         9.6384   -6.1012    4.9003 H         1 <0>         0.0565
     44 H16        10.7866   -8.9285    4.5675 H         1 <0>         0.0762
     45 H17        11.3045   -7.6437    5.7079 H         1 <0>         0.0763
     46 H18         9.5004   -9.6687    6.3820 H         1 <0>         0.0747
     47 H19         9.5274   -8.0635    7.1728 H         1 <0>         0.0696
     48 H20         7.5039   -7.5549    6.2299 H         1 <0>         0.0528
     49 H21         7.4592   -9.1716    5.4712 H         1 <0>         0.0818
@<TRIPOS>BOND
     1    1    6 ar
     2    1    2 ar
     3    1   29 1
     4    2    3 ar
     5    2   30 1
     6    3    4 ar
     7    3   31 1
     8    4    5 ar
     9    4    7 1
    10    5    6 ar
    11    5   32 1
    12    6   33 1
    13    7   12 ar
    14    7    8 ar
    15    8   20 1
    16    8    9 ar
    17    9   10 ar
    18    9   14 1
    19   10   11 ar
    20   11   12 ar
    21   11   13 1
    22   13   34 1
    23   13   35 1
    24   14   19 ar
    25   14   15 ar
    26   15   16 ar
    27   15   36 1
    28   16   17 ar
    29   16   22 1
    30   17   18 ar
    31   17   37 1
    32   18   19 ar
    33   18   38 1
    34   19   20 1
    35   20   21 2
    36   22   23 1
    37   22   39 1
    38   22   40 1
    39   23   24 1
    40   23   41 1
    41   24   28 1
    42   24   25 1
    43   25   26 1
    44   25   42 1
    45   25   43 1
    46   26   27 1
    47   26   44 1
    48   26   45 1
    49   27   28 1
    50   27   46 1
    51   27   47 1
    52   28   48 1
    53   28   49 1
@<TRIPOS>MOLECULE
CHEMBL603791
   76    81     0     0     0
SMALL
USER_CHARGES

@<TRIPOS>ATOM
      1 C1         -0.4958    1.7066    0.2446 C.3       1 <0>        -0.1227
      2 C2         -0.3288    0.2201    0.0617 C.ar      1 <0>        -0.0754
      3 C3         -0.5236   -0.3495   -1.1829 C.ar      1 <0>        -0.1182
      4 C4         -0.3705   -1.7128   -1.3506 C.ar      1 <0>        -0.1139
      5 C5         -0.0220   -2.5070   -0.2739 C.ar      1 <0>        -0.1233
      6 C6          0.1736   -1.9374    0.9702 C.ar      1 <0>        -0.1008
      7 C7          0.0246   -0.5731    1.1370 C.ar      1 <0>        -0.0806
      8 C8          0.2431    0.0486    2.4923 C.3       1 <0>        -0.0238
      9 C9          1.6165   -0.3627    3.0267 C.3       1 <0>         0.1384
     10 N1          2.6627    0.1997    2.1691 N.pl3     1 <0>        -0.6890
     11 C10         3.9953   -0.0390    2.4560 C.ar      1 <0>         0.5083
     12 C11         5.0122    0.4973    1.6476 C.ar      1 <0>        -0.1012
     13 C12         6.3465    0.2203    1.9892 C.ar      1 <0>         0.3108
     14 N2          6.5974   -0.5324    3.0557 N.ar      1 <0>        -0.5642
     15 C13         5.6123   -1.0133    3.7841 C.ar      1 <0>         0.3629
     16 N3          4.3432   -0.7762    3.5055 N.ar      1 <0>        -0.5885
     17 N4          7.1174    0.8555    1.0487 N.pl3     1 <0>        -0.4645
     18 C14         6.2717    1.4842    0.1841 C.2       1 <0>         0.2765
     19 N5          5.0371    1.2728    0.5372 N.2       1 <0>        -0.4636
     20 C15         8.5810    0.8581    0.9857 C.3       1 <0>         0.3167
     21 C16         9.1421    1.9788    1.8871 C.3       1 <0>         0.0797
     22 H1          9.4974    1.5733    2.8345 H         1 <0>         0.1040
     23 C17        10.3251    2.5219    1.0401 C.3       1 <0>         0.0505
     24 H2         11.2224    1.9208    1.1875 H         1 <0>         0.0988
     25 C18         9.7649    2.3466   -0.3939 C.3       1 <0>         0.0349
     26 H3          9.1170    3.1844   -0.6520 H         1 <0>         0.1191
     27 O1          9.0092    1.1256   -0.3547 O.3       1 <0>        -0.3274
     28 C19        10.8934    2.2341   -1.3863 C.2       1 <0>         0.5160
     29 O2         11.0589    1.2025   -2.0021 O.2       1 <0>        -0.5012
     30 N6         11.7189    3.2800   -1.5894 N.am      1 <0>        -0.6999
     31 C20        12.8160    3.1707   -2.5541 C.3       1 <0>         0.0751
     32 C21        14.1796    3.7266   -2.1392 C.3       1 <0>        -0.1899
     33 C22        13.3372    4.4654   -3.1810 C.3       1 <0>        -0.1854
     34 O3         10.5775    3.8981    1.3307 O.3       1 <0>        -0.5354
     35 O4          8.1606    2.9938    2.1071 O.3       1 <0>        -0.5325
     36 C23        -0.8276   -0.4255    3.4409 C.ar      1 <0>         0.0075
     37 C24        -0.8100   -1.7264    3.9063 C.ar      1 <0>        -0.1797
     38 C25        -1.7948   -2.1653    4.7800 C.ar      1 <0>         0.1711
     39 C26        -2.7969   -1.2974    5.1857 C.ar      1 <0>        -0.2981
     40 C27        -2.8123    0.0073    4.7174 C.ar      1 <0>         0.1698
     41 C28        -1.8220    0.4431    3.8483 C.ar      1 <0>        -0.1790
     42 O5         -3.7934    0.8603    5.1130 O.3       1 <0>        -0.3128
     43 C29        -4.7768    0.3454    6.0129 C.3       1 <0>         0.0263
     44 O6         -1.7773   -3.4450    5.2370 O.3       1 <0>        -0.3117
     45 C30        -2.8221   -3.8281    6.1335 C.3       1 <0>         0.0263
     46 H4          0.4758    2.1941    0.1632 H         1 <0>         0.0731
     47 H5         -1.1626    2.0948   -0.5253 H         1 <0>         0.0686
     48 H6         -0.9212    1.9062    1.2281 H         1 <0>         0.0698
     49 H7         -0.7958    0.2709   -2.0240 H         1 <0>         0.1218
     50 H8         -0.5234   -2.1578   -2.3227 H         1 <0>         0.1205
     51 H9          0.0969   -3.5724   -0.4048 H         1 <0>         0.1206
     52 H10         0.4455   -2.5578    1.8114 H         1 <0>         0.1223
     53 H11         0.1972    1.1342    2.4057 H         1 <0>         0.1032
     54 H12         1.7385    0.0130    4.0426 H         1 <0>         0.0792
     55 H13         1.6946   -1.4499    3.0295 H         1 <0>         0.0773
     56 H14         2.4213    0.7395    1.4001 H         1 <0>         0.4179
     57 H15         5.8507   -1.6217    4.6441 H         1 <0>         0.2024
     58 H16         6.5807    2.0711   -0.6683 H         1 <0>         0.2134
     59 H17         8.9668   -0.1081    1.3112 H         1 <0>         0.1409
     60 H18        11.5865    4.1051   -1.0969 H         1 <0>         0.3983
     61 H19        12.8052    2.2777   -3.1791 H         1 <0>         0.1414
     62 H20        14.2605    4.1737   -1.1484 H         1 <0>         0.0985
     63 H21        15.0663    3.1993   -2.4910 H         1 <0>         0.1061
     64 H22        13.6696    4.4241   -4.2182 H         1 <0>         0.1074
     65 H23        12.8638    5.3985   -2.8756 H         1 <0>         0.0998
     66 H24        11.3080    4.2793    0.8247 H         1 <0>         0.3841
     67 H25         8.4651    3.7204    2.6678 H         1 <0>         0.3946
     68 H26        -0.0294   -2.4022    3.5897 H         1 <0>         0.1342
     69 H27        -3.5644   -1.6373    5.8653 H         1 <0>         0.1344
     70 H28        -1.8311    1.4607    3.4866 H         1 <0>         0.1324
     71 H29        -5.2903   -0.4959    5.5474 H         1 <0>         0.0554
     72 H30        -4.2910    0.0122    6.9300 H         1 <0>         0.0558
     73 H31        -5.4992    1.1271    6.2477 H         1 <0>         0.1028
     74 H32        -2.7866   -3.1990    7.0229 H         1 <0>         0.0557
     75 H33        -3.7866   -3.7063    5.6406 H         1 <0>         0.0550
     76 H34        -2.6900   -4.8712    6.4208 H         1 <0>         0.1030
@<TRIPOS>BOND
     1    1    2 1
     2    1   46 1
     3    1   47 1
     4    1   48 1
     5    2    7 ar
     6    2    3 ar
     7    3    4 ar
     8    3   49 1
     9    4    5 ar
    10    4   50 1
    11    5    6 ar
    12    5   51 1
    13    6    7 ar
    14    6   52 1
    15    7    8 1
    16    8    9 1
    17    8   36 1
    18    8   53 1
    19    9   10 1
    20    9   54 1
    21    9   55 1
    22   10   11 1
    23   10   56 1
    24   11   16 ar
    25   11   12 ar
    26   12   19 1
    27   12   13 ar
    28   13   14 ar
    29   13   17 1
    30   14   15 ar
    31   15   16 ar
    32   15   57 1
    33   17   18 1
    34   17   20 1
    35   18   19 2
    36   18   58 1
    37   20   27 1
    38   20   21 1
    39   20   59 1
    40   21   22 1
    41   21   23 1
    42   21   35 1
    43   23   24 1
    44   23   25 1
    45   23   34 1
    46   25   26 1
    47   25   27 1
    48   25   28 1
    49   28   29 2
    50   28   30 am
    51   30   31 1
    52   30   60 1
    53   31   33 1
    54   31   32 1
    55   31   61 1
    56   32   33 1
    57   32   62 1
    58   32   63 1
    59   33   64 1
    60   33   65 1
    61   34   66 1
    62   35   67 1
    63   36   41 ar
    64   36   37 ar
    65   37   38 ar
    66   37   68 1
    67   38   39 ar
    68   38   44 1
    69   39   40 ar
    70   39   69 1
    71   40   41 ar
    72   40   42 1
    73   41   70 1
    74   42   43 1
    75   43   71 1
    76   43   72 1
    77   43   73 1
    78   44   45 1
    79   45   74 1
    80   45   75 1
    81   45   76 1
@<TRIPOS>MOLECULE
CHEMBL68738
   45    48     0     0     0
SMALL
USER_CHARGES

@<TRIPOS>ATOM
      1 C1         -0.0158    1.3119    0.0093 C.ar      1 <0>         0.3630
      2 N1          1.0888    2.0360    0.0026 N.ar      1 <0>        -0.5880
      3 C2          2.2875    1.4625   -0.0119 C.ar      1 <0>         0.5071
      4 C3          2.3582    0.0588   -0.0202 C.ar      1 <0>        -0.1100
      5 C4          1.1547   -0.6659   -0.0126 C.ar      1 <0>         0.3119
      6 N2          0.0021   -0.0041    0.0020 N.ar      1 <0>        -0.5516
      7 N3          1.5110   -1.9908   -0.0227 N.pl3     1 <0>        -0.4809
      8 C5          2.8729   -2.0476   -0.0358 C.2       1 <0>         0.2565
      9 N4          3.3680   -0.8441   -0.0343 N.2       1 <0>        -0.4608
     10 C6          0.5956   -3.1347   -0.0195 C.3       1 <0>         0.3145
     11 H1         -0.2913   -2.9000   -0.6081 H         1 <0>         0.1356
     12 C7          0.1873   -3.4747    1.4300 C.3       1 <0>         0.0825
     13 H2          0.9252   -3.0994    2.1390 H         1 <0>         0.0919
     14 C8          0.1764   -5.0276    1.4137 C.3       1 <0>         0.0448
     15 H3          0.3908   -5.4324    2.4028 H         1 <0>         0.0949
     16 C9          1.3353   -5.3195    0.4275 C.3       1 <0>         0.0450
     17 H4          2.2934   -5.2720    0.9450 H         1 <0>         0.0967
     18 O1          1.2521   -4.2839   -0.5671 O.3       1 <0>        -0.3394
     19 C10         1.1493   -6.6939   -0.2186 C.3       1 <0>         0.0756
     20 O2          2.2838   -6.9944   -1.0339 O.3       1 <0>        -0.5632
     21 O3         -1.0650   -5.5287    0.9137 O.3       1 <0>        -0.5323
     22 O4         -1.1105   -2.9560    1.7278 O.3       1 <0>        -0.5227
     23 N5          3.4393    2.2295   -0.0193 N.pl3     1 <0>        -0.6878
     24 C11         3.3458    3.6915   -0.0110 C.3       1 <0>         0.1465
     25 C12         3.2434    4.2227   -1.4557 C.3       1 <0>        -0.1339
     26 C13         4.0688    5.5332   -1.4380 C.3       1 <0>        -0.1249
     27 C14         5.2562    5.1767   -0.5095 C.3       1 <0>        -0.1248
     28 C15         4.6256    4.2981    0.5906 C.3       1 <0>        -0.1337
     29 H5         -0.9693    1.8187    0.0257 H         1 <0>         0.2036
     30 H6          3.4551   -2.9572   -0.0459 H         1 <0>         0.2192
     31 H7          1.0502   -7.4508    0.5595 H         1 <0>         0.0647
     32 H8          0.2504   -6.6868   -0.8352 H         1 <0>         0.0660
     33 H9          2.2341   -7.8531   -1.4758 H         1 <0>         0.3866
     34 H10        -1.1168   -6.4938    0.8856 H         1 <0>         0.3829
     35 H11        -1.4122   -3.1435    2.6272 H         1 <0>         0.3885
     36 H12         4.3085    1.7992   -0.0299 H         1 <0>         0.4158
     37 H13         2.4764    4.0065    0.5660 H         1 <0>         0.0981
     38 H14         3.6762    3.5086   -2.1563 H         1 <0>         0.0676
     39 H15         2.2046    4.4296   -1.7133 H         1 <0>         0.0735
     40 H16         4.4221    5.7807   -2.4391 H         1 <0>         0.0684
     41 H17         3.4840    6.3525   -1.0200 H         1 <0>         0.0704
     42 H18         6.0141    4.6167   -1.0573 H         1 <0>         0.0666
     43 H19         5.6864    6.0798   -0.0766 H         1 <0>         0.0689
     44 H20         4.3771    4.9082    1.4590 H         1 <0>         0.0764
     45 H21         5.3162    3.5047    0.8764 H         1 <0>         0.0706
@<TRIPOS>BOND
     1    1    6 ar
     2    1    2 ar
     3    1   29 1
     4    2    3 ar
     5    3    4 ar
     6    3   23 1
     7    4    9 1
     8    4    5 ar
     9    5    6 ar
    10    5    7 1
    11    7    8 1
    12    7   10 1
    13    8    9 2
    14    8   30 1
    15   10   11 1
    16   10   18 1
    17   10   12 1
    18   12   13 1
    19   12   14 1
    20   12   22 1
    21   14   15 1
    22   14   16 1
    23   14   21 1
    24   16   17 1
    25   16   18 1
    26   16   19 1
    27   19   20 1
    28   19   31 1
    29   19   32 1
    30   20   33 1
    31   21   34 1
    32   22   35 1
    33   23   24 1
    34   23   36 1
    35   24   28 1
    36   24   25 1
    37   24   37 1
    38   25   26 1
    39   25   38 1
    40   25   39 1
    41   26   27 1
    42   26   40 1
    43   26   41 1
    44   27   28 1
    45   27   42 1
    46   27   43 1
    47   28   44 1
    48   28   45 1
@<TRIPOS>MOLECULE
CHEMBL483242
   54    56     0     0     0
SMALL
USER_CHARGES

@<TRIPOS>ATOM
      1 C1         -0.0187    1.5258    0.0104 C.3       1 <0>        -0.1672
      2 C2          0.0021   -0.0041    0.0020 C.3       1 <0>         0.1421
      3 N1          0.7106   -0.4894    1.1889 N.am      1 <0>        -0.5950
      4 C3          2.1647   -0.7080    1.1364 C.3       1 <0>         0.2817
      5 C4          2.8211   -1.2305    2.4414 C.3       1 <0>         0.0887
      6 C5          1.8827   -1.4390    3.6123 C.2       1 <0>         0.5240
      7 O1          2.3060   -1.8387    4.6757 O.2       1 <0>        -0.4844
      8 N2          0.5743   -1.1742    3.4555 N.am      1 <0>        -0.5596
      9 C6          0.0328   -0.7275    2.3208 C.2       1 <0>         0.7028
     10 O2         -1.1657   -0.5258    2.3112 O.2       1 <0>        -0.5556
     11 C7         -0.3115   -1.3842    4.6033 C.3       1 <0>         0.1007
     12 C8         -0.3951   -0.0965    5.4253 C.3       1 <0>        -0.1622
     13 N3          3.7290   -0.1374    2.8220 N.pl3     1 <0>        -0.6284
     14 C9          3.6240    0.8622    1.8857 C.2       1 <0>         0.4285
     15 N4          2.7814    0.6091    0.9337 N.2       1 <0>        -0.5721
     16 C10         4.3979    2.1074    1.9568 C.2       1 <0>        -0.1443
     17 C11         4.2481    3.0483    1.0056 C.2       1 <0>        -0.0112
     18 C12         5.0240    4.2967    1.0769 C.ar      1 <0>        -0.0761
     19 C13         5.9218    4.5052    2.1288 C.ar      1 <0>        -0.0942
     20 C14         6.6476    5.6749    2.1932 C.ar      1 <0>        -0.1763
     21 C15         6.4899    6.6483    1.2162 C.ar      1 <0>         0.1145
     22 C16         5.5971    6.4478    0.1648 C.ar      1 <0>         0.0983
     23 C17         4.8699    5.2756    0.0897 C.ar      1 <0>        -0.1472
     24 O3          5.4453    7.4042   -0.7900 O.3       1 <0>        -0.3054
     25 C18         4.5132    7.1321   -1.8385 C.3       1 <0>         0.0241
     26 O4          7.2075    7.8000    1.2853 O.3       1 <0>        -0.3034
     27 C19         8.1039    7.9406    2.3893 C.3       1 <0>         0.0241
     28 C20         4.5979   -0.1177    4.0013 C.3       1 <0>         0.0965
     29 H1          1.0039    1.9031    0.0027 H         1 <0>         0.0757
     30 H2         -0.5459    1.8868   -0.8726 H         1 <0>         0.0634
     31 H3         -0.5289    1.8773    0.9072 H         1 <0>         0.0512
     32 H4         -1.0205   -0.3814    0.0098 H         1 <0>         0.0869
     33 H5          0.5123   -0.3556   -0.8948 H         1 <0>         0.0828
     34 H6          2.4096   -1.3626    0.3000 H         1 <0>         0.1246
     35 H7          3.3787   -2.1454    2.2411 H         1 <0>         0.1354
     36 H8         -1.3065   -1.6548    4.2497 H         1 <0>         0.1018
     37 H9          0.0839   -2.1873    5.2252 H         1 <0>         0.0957
     38 H10         0.5998    0.1741    5.7789 H         1 <0>         0.0554
     39 H11        -0.7905    0.7066    4.8034 H         1 <0>         0.0608
     40 H12        -1.0542   -0.2527    6.2793 H         1 <0>         0.0765
     41 H13         5.0875    2.2687    2.7722 H         1 <0>         0.1347
     42 H14         3.5585    2.8869    0.1902 H         1 <0>         0.1390
     43 H15         6.0460    3.7499    2.8907 H         1 <0>         0.1315
     44 H16         7.3406    5.8348    3.0059 H         1 <0>         0.1396
     45 H17         4.1808    5.1173   -0.7267 H         1 <0>         0.1417
     46 H18         4.8188    6.2319   -2.3717 H         1 <0>         0.0567
     47 H19         3.5209    6.9831   -1.4129 H         1 <0>         0.0566
     48 H20         4.4891    7.9738   -2.5306 H         1 <0>         0.1028
     49 H21         7.5423    7.8891    3.3221 H         1 <0>         0.0569
     50 H22         8.8405    7.1376    2.3638 H         1 <0>         0.0571
     51 H23         8.6125    8.9025    2.3241 H         1 <0>         0.1031
     52 H24         5.5665   -0.5476    3.7462 H         1 <0>         0.0626
     53 H25         4.7336    0.9109    4.3355 H         1 <0>         0.0754
     54 H26         4.1401   -0.7018    4.7997 H         1 <0>         0.0886
@<TRIPOS>BOND
     1    1    2 1
     2    1   29 1
     3    1   30 1
     4    1   31 1
     5    2    3 1
     6    2   32 1
     7    2   33 1
     8    3    9 am
     9    3    4 1
    10    4   15 1
    11    4    5 1
    12    4   34 1
    13    5    6 1
    14    5   13 1
    15    5   35 1
    16    6    7 2
    17    6    8 am
    18    8    9 am
    19    8   11 1
    20    9   10 2
    21   11   12 1
    22   11   36 1
    23   11   37 1
    24   12   38 1
    25   12   39 1
    26   12   40 1
    27   13   14 1
    28   13   28 1
    29   14   15 2
    30   14   16 1
    31   16   17 2
    32   16   41 1
    33   17   18 1
    34   17   42 1
    35   18   23 ar
    36   18   19 ar
    37   19   20 ar
    38   19   43 1
    39   20   21 ar
    40   20   44 1
    41   21   22 ar
    42   21   26 1
    43   22   23 ar
    44   22   24 1
    45   23   45 1
    46   24   25 1
    47   25   46 1
    48   25   47 1
    49   25   48 1
    50   26   27 1
    51   27   49 1
    52   27   50 1
    53   27   51 1
    54   28   52 1
    55   28   53 1
    56   28   54 1
@<TRIPOS>MOLECULE
CHEMBL260989
   42    45     0     0     0
SMALL
USER_CHARGES

@<TRIPOS>ATOM
      1 C1         -0.0167    1.3781    0.0096 C.ar      1 <0>        -0.1184
      2 C2          1.1709    2.0855    0.0021 C.ar      1 <0>        -0.1179
      3 C3          2.3773    1.4107   -0.0130 C.ar      1 <0>        -0.1125
      4 C4          2.3960    0.0285   -0.0201 C.ar      1 <0>        -0.0873
      5 C5          1.2084   -0.6789   -0.0117 C.ar      1 <0>        -0.1125
      6 C6          0.0021   -0.0041    0.0020 C.ar      1 <0>        -0.1179
      7 C7          3.7112   -0.7071   -0.0376 C.3       1 <0>        -0.0909
      8 C8          4.1714   -0.9633    1.3989 C.3       1 <0>         0.1373
      9 N1          5.4498   -1.6784    1.3820 N.am      1 <0>        -0.7249
     10 C9          6.0502   -2.0132    2.5413 C.2       1 <0>         0.7081
     11 O1          5.5310   -1.7219    3.6005 O.2       1 <0>        -0.5076
     12 N2          7.2263   -2.6711    2.5257 N.am      1 <0>        -0.4709
     13 C10         7.9274   -3.0574    1.4130 C.2       1 <0>         0.2523
     14 N3          9.0185   -3.6691    1.7676 N.2       1 <0>        -0.4179
     15 C11         9.0947   -3.7187    3.1192 C.ar      1 <0>        -0.0936
     16 C12         7.9517   -3.0759    3.6257 C.ar      1 <0>         0.3664
     17 N4          7.7886   -2.9840    4.9388 N.ar      1 <0>        -0.5476
     18 C13         8.6896   -3.4871    5.7693 C.ar      1 <0>         0.6030
     19 N5          9.7839   -4.0986    5.3414 N.ar      1 <0>        -0.5435
     20 C14        10.0257   -4.2442    4.0376 C.ar      1 <0>         0.3704
     21 C15        11.2453   -4.9242    3.5687 C.2       1 <0>         0.0048
     22 C16        12.4642   -4.8897    4.1761 C.2       1 <0>        -0.1329
     23 C17        13.3302   -5.6726    3.3909 C.2       1 <0>        -0.2232
     24 C18        12.6077   -6.1428    2.3533 C.2       1 <0>        -0.0069
     25 O2         11.3484   -5.6938    2.4671 O.3       1 <0>        -0.1488
     26 N6          8.4801   -3.3693    7.1336 N.pl3     1 <0>        -0.8076
     27 H1         -0.9591    1.9053    0.0259 H         1 <0>         0.1229
     28 H2          1.1563    3.1654    0.0076 H         1 <0>         0.1237
     29 H3          3.3051    1.9634   -0.0196 H         1 <0>         0.1229
     30 H4          1.2231   -1.7588   -0.0176 H         1 <0>         0.1229
     31 H5         -0.9258   -0.5567    0.0082 H         1 <0>         0.1237
     32 H6          3.5884   -1.6586   -0.5549 H         1 <0>         0.0836
     33 H7          4.4573   -0.1052   -0.5563 H         1 <0>         0.0836
     34 H8          4.2941   -0.0118    1.9163 H         1 <0>         0.0776
     35 H9          3.4252   -1.5652    1.9176 H         1 <0>         0.0776
     36 H10         5.8643   -1.9110    0.5363 H         1 <0>         0.4031
     37 H11         7.6191   -2.8802    0.3932 H         1 <0>         0.2323
     38 H12        12.7169   -4.3629    5.0844 H         1 <0>         0.1575
     39 H13        14.3763   -5.8611    3.5825 H         1 <0>         0.1566
     40 H14        12.9802   -6.7787    1.5638 H         1 <0>         0.2113
     41 H15         7.6846   -2.9244    7.4655 H         1 <0>         0.4206
     42 H16         9.1290   -3.7316    7.7570 H         1 <0>         0.4207
@<TRIPOS>BOND
     1    1    6 ar
     2    1    2 ar
     3    1   27 1
     4    2    3 ar
     5    2   28 1
     6    3    4 ar
     7    3   29 1
     8    4    5 ar
     9    4    7 1
    10    5    6 ar
    11    5   30 1
    12    6   31 1
    13    7    8 1
    14    7   32 1
    15    7   33 1
    16    8    9 1
    17    8   34 1
    18    8   35 1
    19    9   10 am
    20    9   36 1
    21   10   11 2
    22   10   12 am
    23   12   16 1
    24   12   13 1
    25   13   14 2
    26   13   37 1
    27   14   15 1
    28   15   20 ar
    29   15   16 ar
    30   16   17 ar
    31   17   18 ar
    32   18   19 ar
    33   18   26 1
    34   19   20 ar
    35   20   21 1
    36   21   25 1
    37   21   22 2
    38   22   23 1
    39   22   38 1
    40   23   24 2
    41   23   39 1
    42   24   25 1
    43   24   40 1
    44   26   41 1
    45   26   42 1
@<TRIPOS>MOLECULE
CHEMBL610651
   53    56     0     0     0
SMALL
USER_CHARGES

@<TRIPOS>ATOM
      1 C1         -0.0164    1.3590    0.0095 C.2       1 <0>         0.2860
      2 N1          1.2006    1.8206    0.0004 N.2       1 <0>        -0.4659
      3 C2          2.0754    0.7871   -0.0135 C.ar      1 <0>        -0.0986
      4 C3          3.4784    0.6816   -0.0279 C.ar      1 <0>         0.5127
      5 N2          4.0240   -0.5276   -0.0400 N.ar      1 <0>        -0.5738
      6 C4          3.2683   -1.6225   -0.0386 C.ar      1 <0>         0.4974
      7 N3          1.9438   -1.5670   -0.0257 N.ar      1 <0>        -0.5421
      8 C5          1.3171   -0.3971   -0.0127 C.ar      1 <0>         0.3125
      9 N4          0.0021   -0.0041    0.0020 N.pl3     1 <0>        -0.4620
     10 C6         -1.1668   -0.8871    0.0089 C.3       1 <0>         0.3134
     11 C7         -1.5287   -1.2882   -1.4374 C.3       1 <0>         0.0764
     12 H1         -1.1656   -2.2906   -1.6643 H         1 <0>         0.0990
     13 C8         -3.0811   -1.2558   -1.4098 C.3       1 <0>         0.0478
     14 H2         -3.4868   -2.1907   -1.0232 H         1 <0>         0.0937
     15 C9         -3.3334   -0.0875   -0.4237 C.3       1 <0>         0.0510
     16 H3         -3.2630    0.8680   -0.9433 H         1 <0>         0.0989
     17 O1         -2.2939   -0.1972    0.5615 O.3       1 <0>        -0.3457
     18 C10        -4.7077   -0.2340    0.2327 C.3       1 <0>         0.0780
     19 O2         -4.9705    0.9098    1.0480 O.3       1 <0>        -0.5628
     20 O3         -3.6132   -0.9631   -2.7033 O.3       1 <0>        -0.5424
     21 O4         -1.0127   -0.3390   -2.3726 O.3       1 <0>        -0.5347
     22 C11         3.9070   -2.9041   -0.0520 C.1       1 <0>        -0.1285
     23 C12         4.4307   -3.9548   -0.0630 C.1       1 <0>        -0.0840
     24 C13         5.0872   -5.2722   -0.0768 C.3       1 <0>        -0.0087
     25 C14         4.0237   -6.3721   -0.0724 C.3       1 <0>        -0.0836
     26 C15         3.2439   -6.3223    1.2429 C.3       1 <0>        -0.1167
     27 C16         2.1803   -7.4222    1.2473 C.3       1 <0>        -0.1198
     28 C17         2.8576   -8.7870    1.1073 C.3       1 <0>        -0.1211
     29 C18         3.6375   -8.8369   -0.2080 C.3       1 <0>        -0.1201
     30 C19         4.7010   -7.7369   -0.2124 C.3       1 <0>        -0.1147
     31 N5          4.2724    1.8152   -0.0299 N.pl3     1 <0>        -0.8157
     32 H4         -0.9093    1.9664    0.0254 H         1 <0>         0.2180
     33 H5         -0.9533   -1.7785    0.5988 H         1 <0>         0.1369
     34 H6         -5.4727   -0.3132   -0.5397 H         1 <0>         0.0640
     35 H7         -4.7212   -1.1317    0.8509 H         1 <0>         0.0593
     36 H8         -5.8270    0.8849    1.4962 H         1 <0>         0.3859
     37 H9         -4.5793   -0.9327   -2.7335 H         1 <0>         0.3905
     38 H10        -1.2137   -0.5468   -3.2954 H         1 <0>         0.3941
     39 H11         5.7004   -5.3632   -0.9733 H         1 <0>         0.0961
     40 H12         5.7179   -5.3731    0.8065 H         1 <0>         0.0948
     41 H13         3.3392   -6.2190   -0.9067 H         1 <0>         0.0771
     42 H14         3.9284   -6.4755    2.0772 H         1 <0>         0.0626
     43 H15         2.7614   -5.3500    1.3427 H         1 <0>         0.0649
     44 H16         1.6247   -7.3867    2.1844 H         1 <0>         0.0609
     45 H17         1.4958   -7.2690    0.4130 H         1 <0>         0.0617
     46 H18         3.5421   -8.9402    1.9416 H         1 <0>         0.0612
     47 H19         2.0999   -9.5706    1.1104 H         1 <0>         0.0601
     48 H20         4.1200   -9.8092   -0.3078 H         1 <0>         0.0622
     49 H21         2.9529   -8.6837   -1.0423 H         1 <0>         0.0620
     50 H22         5.2566   -7.7724   -1.1495 H         1 <0>         0.0648
     51 H23         5.3855   -7.8901    0.6219 H         1 <0>         0.0651
     52 H24         3.8626    2.6943   -0.0213 H         1 <0>         0.4207
     53 H25         5.2386    1.7306   -0.0398 H         1 <0>         0.4110
@<TRIPOS>BOND
     1    1    9 1
     2    1    2 2
     3    1   32 1
     4    2    3 1
     5    3    8 ar
     6    3    4 ar
     7    4    5 ar
     8    4   31 1
     9    5    6 ar
    10    6    7 ar
    11    6   22 1
    12    7    8 ar
    13    8    9 1
    14    9   10 1
    15   10   17 1
    16   10   11 1
    17   10   33 1
    18   11   12 1
    19   11   13 1
    20   11   21 1
    21   13   14 1
    22   13   15 1
    23   13   20 1
    24   15   16 1
    25   15   17 1
    26   15   18 1
    27   18   19 1
    28   18   34 1
    29   18   35 1
    30   19   36 1
    31   20   37 1
    32   21   38 1
    33   22   23 3
    34   23   24 1
    35   24   25 1
    36   24   39 1
    37   24   40 1
    38   25   30 1
    39   25   26 1
    40   25   41 1
    41   26   27 1
    42   26   42 1
    43   26   43 1
    44   27   28 1
    45   27   44 1
    46   27   45 1
    47   28   29 1
    48   28   46 1
    49   28   47 1
    50   29   30 1
    51   29   48 1
    52   29   49 1
    53   30   50 1
    54   30   51 1
    55   31   52 1
    56   31   53 1
@<TRIPOS>MOLECULE
CHEMBL521242
   53    57     0     0     0
SMALL
USER_CHARGES

@<TRIPOS>ATOM
      1 C1         -0.0162    1.3434    0.0094 C.2       1 <0>        -0.2189
      2 C2          1.3252    1.7744   -0.0011 C.2       1 <0>        -0.1257
      3 C3          2.0961    0.6548   -0.0144 C.2       1 <0>         0.0356
      4 O1          1.2797   -0.4166   -0.0124 O.3       1 <0>        -0.1608
      5 C4          0.0021   -0.0041    0.0020 C.2       1 <0>        -0.0074
      6 C5          3.5736    0.6193   -0.0292 C.2       1 <0>         0.3563
      7 N1          4.3729    1.6920   -0.0257 N.2       1 <0>        -0.5232
      8 C6          5.6387    1.3016   -0.0416 C.2       1 <0>         0.3633
      9 C7          6.8653    1.9860   -0.0465 C.2       1 <0>        -0.2049
     10 C8          8.0329    1.2457   -0.0655 C.2       1 <0>         0.1891
     11 N2          7.9812   -0.0925   -0.0788 N.2       1 <0>        -0.5608
     12 C9          6.8369   -0.7390   -0.0743 C.2       1 <0>         0.6643
     13 N3          5.6511   -0.0706   -0.0558 N.pl3     1 <0>        -0.3639
     14 N4          4.3105   -0.4761   -0.0421 N.2       1 <0>        -0.3219
     15 N5          6.8375   -2.1137   -0.0884 N.pl3     1 <0>        -0.8053
     16 S1          9.5929    2.0649   -0.0729 S.3       1 <0>        -0.0156
     17 C10        10.7996    0.7108   -0.0984 C.3       1 <0>        -0.1034
     18 C11        12.2158    1.2898   -0.1067 C.3       1 <0>         0.0686
     19 N6         13.1931    0.1932   -0.1274 N.3       1 <0>        -0.5284
     20 C12        13.1344   -0.5877    1.1155 C.3       1 <0>         0.0340
     21 C13        14.0332   -1.8216    0.9824 C.3       1 <0>         0.1506
     22 N7         15.3795   -1.3788    0.5892 N.pl3     1 <0>        -0.6757
     23 C14        15.5060   -0.4799   -0.5681 C.3       1 <0>         0.1500
     24 C15        14.5492    0.7012   -0.3740 C.3       1 <0>         0.0401
     25 C16        16.5105   -1.8019    1.2974 C.ar      1 <0>         0.1281
     26 C17        17.1755   -2.9595    0.9177 C.ar      1 <0>        -0.0663
     27 C18        18.2916   -3.3756    1.6178 C.ar      1 <0>        -0.1570
     28 C19        18.7475   -2.6396    2.6983 C.ar      1 <0>         0.1275
     29 C20        18.0865   -1.4845    3.0805 C.ar      1 <0>        -0.1893
     30 C21        16.9728   -1.0602    2.3788 C.ar      1 <0>         0.1209
     31 F1         16.3314    0.0703    2.7474 F         1 <0>        -0.1264
     32 F2         19.8388   -3.0494    3.3812 F         1 <0>        -0.1302
     33 H1         -0.8931    1.9736    0.0252 H         1 <0>         0.1599
     34 H2          1.6736    2.7966    0.0006 H         1 <0>         0.1636
     35 H3         -0.8667   -0.6456    0.0072 H         1 <0>         0.2135
     36 H4          6.8957    3.0655   -0.0361 H         1 <0>         0.1696
     37 H5          7.6777   -2.5983   -0.1016 H         1 <0>         0.4294
     38 H6          5.9977   -2.5992   -0.0852 H         1 <0>         0.4253
     39 H7         10.6666    0.0889    0.7868 H         1 <0>         0.0952
     40 H8         10.6489    0.1066   -0.9930 H         1 <0>         0.1051
     41 H9         12.3488    1.9118   -0.9919 H         1 <0>         0.0875
     42 H10        12.3666    1.8941    0.7879 H         1 <0>         0.0460
     43 H11        13.4799    0.0260    1.9473 H         1 <0>         0.0409
     44 H12        12.1073   -0.9038    1.2982 H         1 <0>         0.0838
     45 H13        14.0838   -2.3426    1.9385 H         1 <0>         0.0723
     46 H14        13.6297   -2.4880    0.2200 H         1 <0>         0.0638
     47 H15        16.5304   -0.1138   -0.6371 H         1 <0>         0.0737
     48 H16        15.2441   -1.0173   -1.4795 H         1 <0>         0.0645
     49 H17        14.5483    1.3198   -1.2714 H         1 <0>         0.0847
     50 H18        14.8751    1.2970    0.4786 H         1 <0>         0.0409
     51 H19        16.8206   -3.5349    0.0755 H         1 <0>         0.1445
     52 H20        18.8089   -4.2764    1.3221 H         1 <0>         0.1446
     53 H21        18.4434   -0.9123    3.9240 H         1 <0>         0.1484
@<TRIPOS>BOND
     1    1    5 2
     2    1    2 1
     3    1   33 1
     4    2    3 2
     5    2   34 1
     6    3    4 1
     7    3    6 1
     8    4    5 1
     9    5   35 1
    10    6   14 2
    11    6    7 1
    12    7    8 2
    13    8   13 1
    14    8    9 1
    15    9   10 2
    16    9   36 1
    17   10   11 1
    18   10   16 1
    19   11   12 2
    20   12   13 1
    21   12   15 1
    22   13   14 1
    23   15   37 1
    24   15   38 1
    25   16   17 1
    26   17   18 1
    27   17   39 1
    28   17   40 1
    29   18   19 1
    30   18   41 1
    31   18   42 1
    32   19   24 1
    33   19   20 1
    34   20   21 1
    35   20   43 1
    36   20   44 1
    37   21   22 1
    38   21   45 1
    39   21   46 1
    40   22   23 1
    41   22   25 1
    42   23   24 1
    43   23   47 1
    44   23   48 1
    45   24   49 1
    46   24   50 1
    47   25   30 ar
    48   25   26 ar
    49   26   27 ar
    50   26   51 1
    51   27   28 ar
    52   27   52 1
    53   28   29 ar
    54   28   32 1
    55   29   30 ar
    56   29   53 1
    57   30   31 1
@<TRIPOS>MOLECULE
CHEMBL420307
   46    49     0     0     0
SMALL
USER_CHARGES

@<TRIPOS>ATOM
      1 C1          0.2240    1.4449   -0.0034 C.3       1 <0>         0.0728
      2 N1          0.1172   -0.0162   -0.0070 N.am      1 <0>        -0.6064
      3 C2          0.2481   -0.7633    1.2463 C.3       1 <0>         0.1209
      4 C3         -1.1296   -0.9199    1.8931 C.3       1 <0>        -0.0950
      5 C4         -0.9949   -1.6884    3.1823 C.ar      1 <0>        -0.0841
      6 C5         -1.0901   -3.0675    3.1781 C.ar      1 <0>        -0.1126
      7 C6         -0.9665   -3.7725    4.3607 C.ar      1 <0>        -0.1177
      8 C7         -0.7473   -3.0985    5.5475 C.ar      1 <0>        -0.1221
      9 C8         -0.6512   -1.7195    5.5516 C.ar      1 <0>        -0.1191
     10 C9         -0.7705   -1.0148    4.3684 C.ar      1 <0>        -0.1167
     11 C10        -0.1016   -0.6730   -1.1634 C.2       1 <0>         0.5660
     12 O1         -0.2805   -1.8753   -1.1550 O.2       1 <0>        -0.5119
     13 C11        -0.1240    0.0689   -2.4423 C.2       1 <0>         0.0019
     14 C12        -1.3520    0.4151   -3.0445 C.2       1 <0>        -0.2363
     15 C13        -1.3633    1.0981   -4.2208 C.2       1 <0>         0.4598
     16 N2         -0.1972    1.4556   -4.8309 N.pl3     1 <0>        -0.3172
     17 C14         1.0123    1.1371   -4.2764 C.2       1 <0>         0.3356
     18 C15         1.0620    0.4372   -3.0601 C.2       1 <0>        -0.1385
     19 N3          1.9599    1.6067   -5.0806 N.2       1 <0>        -0.5206
     20 C16         1.3992    2.2131   -6.1277 C.2       1 <0>         0.3446
     21 N4          0.0828    2.1465   -6.0193 N.2       1 <0>        -0.3236
     22 C17         2.1338    2.8585   -7.2356 C.2       1 <0>         0.0678
     23 C18         3.4855    2.9290   -7.3622 C.2       1 <0>        -0.1277
     24 C19         3.7456    3.6265   -8.5582 C.2       1 <0>        -0.1561
     25 C20         2.5510    3.9445   -9.0978 C.2       1 <0>        -0.0093
     26 O2          1.5800    3.4742   -8.2986 O.3       1 <0>        -0.1443
     27 Br1         2.2876    4.8895  -10.7144 Br        1 <0>         0.0662
     28 N5         -2.5728    1.4338   -4.8058 N.pl3     1 <0>        -0.8429
     29 H1          1.2725    1.7327   -0.0804 H         1 <0>         0.0651
     30 H2         -0.3276    1.8516   -0.8510 H         1 <0>         0.0745
     31 H3         -0.1934    1.8374    0.9238 H         1 <0>         0.0775
     32 H4          0.6667   -1.7484    1.0400 H         1 <0>         0.0893
     33 H5          0.9085   -0.2227    1.9243 H         1 <0>         0.0848
     34 H6         -1.5482    0.0652    2.0993 H         1 <0>         0.0745
     35 H7         -1.7899   -1.4606    1.2151 H         1 <0>         0.0788
     36 H8         -1.2613   -3.5941    2.2509 H         1 <0>         0.1236
     37 H9         -1.0416   -4.8499    4.3575 H         1 <0>         0.1225
     38 H10        -0.6515   -3.6492    6.4716 H         1 <0>         0.1214
     39 H11        -0.4803   -1.1928    6.4789 H         1 <0>         0.1220
     40 H12        -0.6917    0.0624    4.3710 H         1 <0>         0.1209
     41 H13        -2.2826    0.1377   -2.5719 H         1 <0>         0.1634
     42 H14         2.0123    0.1854   -2.6129 H         1 <0>         0.1631
     43 H15         4.2184    2.5279   -6.6778 H         1 <0>         0.1736
     44 H16         4.7176    3.8620   -8.9659 H         1 <0>         0.1714
     45 H17        -3.4055    1.1820   -4.3767 H         1 <0>         0.4237
     46 H18        -2.5873    1.9208   -5.6445 H         1 <0>         0.4161
@<TRIPOS>BOND
     1    1    2 1
     2    1   29 1
     3    1   30 1
     4    1   31 1
     5    2    3 1
     6    2   11 am
     7    3    4 1
     8    3   32 1
     9    3   33 1
    10    4    5 1
    11    4   34 1
    12    4   35 1
    13    5   10 ar
    14    5    6 ar
    15    6    7 ar
    16    6   36 1
    17    7    8 ar
    18    7   37 1
    19    8    9 ar
    20    8   38 1
    21    9   10 ar
    22    9   39 1
    23   10   40 1
    24   11   12 2
    25   11   13 1
    26   13   18 2
    27   13   14 1
    28   14   15 2
    29   14   41 1
    30   15   16 1
    31   15   28 1
    32   16   21 1
    33   16   17 1
    34   17   18 1
    35   17   19 2
    36   18   42 1
    37   19   20 1
    38   20   21 2
    39   20   22 1
    40   22   26 1
    41   22   23 2
    42   23   24 1
    43   23   43 1
    44   24   25 2
    45   24   44 1
    46   25   26 1
    47   25   27 1
    48   28   45 1
    49   28   46 1
@<TRIPOS>MOLECULE
CHEMBL466021
   62    65     0     0     0
SMALL
USER_CHARGES

@<TRIPOS>ATOM
      1 C1         -0.0379    1.5919   -0.0215 C.3       1 <0>        -0.1488
      2 C2         -0.0109    0.0621   -0.0203 C.3       1 <0>        -0.1411
      3 C3         -1.4441   -0.4732   -0.0059 C.3       1 <0>         0.1190
      4 N1         -1.4183   -1.9380   -0.0047 N.am      1 <0>        -0.5194
      5 C4         -1.4120   -2.6334   -1.2069 C.2       1 <0>         0.1505
      6 C5         -1.4250   -2.2427   -2.5487 C.2       1 <0>        -0.1933
      7 C6         -1.4087   -3.3742   -3.3143 C.2       1 <0>         0.1462
      8 N2         -1.3857   -4.4645   -2.4903 N.pl3     1 <0>        -0.5016
      9 H1         -1.3704   -5.3911   -2.7769 H         1 <0>         0.4299
     10 C7         -1.3874   -4.0255   -1.1832 C.2       1 <0>        -0.1020
     11 C8         -1.3708   -4.6844    0.0671 C.2       1 <0>         0.5866
     12 O1         -1.3488   -5.9012    0.1207 O.2       1 <0>        -0.5161
     13 N3         -1.3791   -3.9534    1.1999 N.am      1 <0>        -0.5484
     14 C9         -1.3952   -2.6101    1.1620 C.2       1 <0>         0.7005
     15 O2         -1.3960   -1.9869    2.2061 O.2       1 <0>        -0.5375
     16 C10        -1.3619   -4.6359    2.4961 C.3       1 <0>         0.1132
     17 C11         0.0864   -4.8481    2.9415 C.3       1 <0>        -0.1371
     18 C12         0.1044   -5.5608    4.2952 C.3       1 <0>        -0.1473
     19 C13        -1.4152   -3.4129   -4.7922 C.ar      1 <0>        -0.0209
     20 C14        -1.4341   -2.2247   -5.5244 C.ar      1 <0>        -0.0915
     21 C15        -1.4396   -2.2678   -6.9033 C.ar      1 <0>        -0.0851
     22 C16        -1.4265   -3.4853   -7.5605 C.ar      1 <0>        -0.0899
     23 C17        -1.4082   -4.6668   -6.8406 C.ar      1 <0>        -0.0840
     24 C18        -1.3967   -4.6376   -5.4614 C.ar      1 <0>        -0.1127
     25 C19        -1.4326   -3.5247   -9.0669 C.3       1 <0>         0.1253
     26 O3         -0.0874   -3.5195   -9.5491 O.3       1 <0>        -0.3553
     27 C20         0.0835   -3.5521  -10.8842 C.2       1 <0>         0.6499
     28 O4         -0.8830   -3.5841  -11.6199 O.2       1 <0>        -0.5503
     29 N4          1.3267   -3.5492  -11.4047 N.am      1 <0>        -0.6496
     30 C21         1.5073   -3.6805  -12.7863 C.ar      1 <0>         0.1513
     31 C22         2.5987   -4.3816  -13.2818 C.ar      1 <0>        -0.1397
     32 C23         2.7741   -4.5095  -14.6458 C.ar      1 <0>        -0.1009
     33 C24         1.8642   -3.9403  -15.5177 C.ar      1 <0>        -0.1300
     34 C25         0.7763   -3.2415  -15.0274 C.ar      1 <0>        -0.1013
     35 C26         0.5922   -3.1150  -13.6645 C.ar      1 <0>        -0.1190
     36 H2          0.9832    1.9733   -0.0317 H         1 <0>         0.0611
     37 H3         -0.5666    1.9453   -0.9067 H         1 <0>         0.0579
     38 H4         -0.5494    1.9470    0.8732 H         1 <0>         0.0594
     39 H5          0.5006   -0.2929   -0.9149 H         1 <0>         0.0681
     40 H6          0.5178   -0.2913    0.8649 H         1 <0>         0.0696
     41 H7         -1.9556   -0.1181    0.8888 H         1 <0>         0.1001
     42 H8         -1.9729   -0.1198   -0.8911 H         1 <0>         0.0929
     43 H9         -1.4446   -1.2270   -2.9152 H         1 <0>         0.1596
     44 H10        -1.8835   -4.0268    3.2343 H         1 <0>         0.1020
     45 H11        -1.8592   -5.6015    2.4049 H         1 <0>         0.1003
     46 H12         0.6081   -5.4571    2.2033 H         1 <0>         0.0666
     47 H13         0.5837   -3.8824    3.0327 H         1 <0>         0.0686
     48 H14        -0.4173   -4.9518    5.0335 H         1 <0>         0.0595
     49 H15        -0.3929   -6.5265    4.2041 H         1 <0>         0.0587
     50 H16         1.1362   -5.7120    4.6126 H         1 <0>         0.0611
     51 H17        -1.4447   -1.2737   -5.0126 H         1 <0>         0.1374
     52 H18        -1.4546   -1.3492   -7.4710 H         1 <0>         0.1344
     53 H19        -1.3987   -5.6138   -7.3596 H         1 <0>         0.1321
     54 H20        -1.3778   -5.5605   -4.9007 H         1 <0>         0.1245
     55 H21        -1.9361   -4.4306   -9.4046 H         1 <0>         0.0827
     56 H22        -1.9597   -2.6514   -9.4511 H         1 <0>         0.0837
     57 H23         2.0964   -3.4560  -10.8217 H         1 <0>         0.4186
     58 H24         3.3099   -4.8261  -12.6014 H         1 <0>         0.1279
     59 H25         3.6230   -5.0543  -15.0318 H         1 <0>         0.1291
     60 H26         2.0037   -4.0413  -16.5839 H         1 <0>         0.1256
     61 H27         0.0676   -2.7978  -15.7110 H         1 <0>         0.1280
     62 H28        -0.2601   -2.5730  -13.2821 H         1 <0>         0.1407
@<TRIPOS>BOND
     1    1    2 1
     2    1   36 1
     3    1   37 1
     4    1   38 1
     5    2    3 1
     6    2   39 1
     7    2   40 1
     8    3    4 1
     9    3   41 1
    10    3   42 1
    11    4   14 am
    12    4    5 1
    13    5   10 2
    14    5    6 1
    15    6    7 2
    16    6   43 1
    17    7    8 1
    18    7   19 1
    19    8    9 1
    20    8   10 1
    21   10   11 1
    22   11   12 2
    23   11   13 am
    24   13   14 am
    25   13   16 1
    26   14   15 2
    27   16   17 1
    28   16   44 1
    29   16   45 1
    30   17   18 1
    31   17   46 1
    32   17   47 1
    33   18   48 1
    34   18   49 1
    35   18   50 1
    36   19   24 ar
    37   19   20 ar
    38   20   21 ar
    39   20   51 1
    40   21   22 ar
    41   21   52 1
    42   22   23 ar
    43   22   25 1
    44   23   24 ar
    45   23   53 1
    46   24   54 1
    47   25   26 1
    48   25   55 1
    49   25   56 1
    50   26   27 1
    51   27   28 2
    52   27   29 am
    53   29   30 1
    54   29   57 1
    55   30   35 ar
    56   30   31 ar
    57   31   32 ar
    58   31   58 1
    59   32   33 ar
    60   32   59 1
    61   33   34 ar
    62   33   60 1
    63   34   35 ar
    64   34   61 1
    65   35   62 1
@<TRIPOS>MOLECULE
CHEMBL293102
   63    65     0     0     0
SMALL
USER_CHARGES

@<TRIPOS>ATOM
      1 C1         -0.0187    1.5258    0.0104 C.3       1 <0>        -0.1450
      2 C2          0.0021   -0.0041    0.0020 C.3       1 <0>        -0.1343
      3 C3          0.7182   -0.4975   -1.2568 C.3       1 <0>         0.0995
      4 N1          0.7381   -1.9623   -1.2648 N.pl3     1 <0>        -0.4474
      5 C4         -0.2983   -2.6652   -1.8593 C.2       1 <0>         0.3084
      6 C5         -0.2546   -4.0559   -1.8535 C.2       1 <0>        -0.1225
      7 C6          0.8391   -4.7067   -1.2454 C.2       1 <0>         0.5795
      8 O1          0.9000   -5.9233   -1.2280 O.2       1 <0>        -0.4929
      9 N2          1.8174   -3.9666   -0.6837 N.am      1 <0>        -0.4995
     10 C7          1.7655   -2.6236   -0.6998 C.2       1 <0>         0.5213
     11 S1          3.0359   -1.7312    0.0218 S.2       1 <0>        -0.5253
     12 C8          2.9558   -4.6370   -0.0507 C.3       1 <0>         0.0955
     13 C9          4.0607   -4.8533   -1.0867 C.3       1 <0>        -0.1338
     14 C10         5.2497   -5.5535   -0.4256 C.3       1 <0>        -0.1458
     15 N3         -1.3963   -4.4865   -2.5032 N.pl3     1 <0>        -0.5142
     16 C11        -2.0820   -3.3699   -2.8748 C.2       1 <0>         0.3496
     17 N4         -1.4165   -2.3000   -2.4850 N.2       1 <0>        -0.4757
     18 H1         -1.6583   -5.4065   -2.6639 H         1 <0>         0.4395
     19 C12        -3.3686   -3.3590   -3.5998 C.ar      1 <0>        -0.0715
     20 C13        -3.9825   -4.5623   -3.9550 C.ar      1 <0>        -0.0520
     21 C14        -5.1830   -4.5479   -4.6308 C.ar      1 <0>        -0.1389
     22 C15        -5.7830   -3.3385   -4.9591 C.ar      1 <0>         0.1497
     23 C16        -5.1756   -2.1394   -4.6075 C.ar      1 <0>        -0.2100
     24 C17        -3.9778   -2.1453   -3.9269 C.ar      1 <0>        -0.0181
     25 O2         -6.9660   -3.3285   -5.6256 O.3       1 <0>        -0.2860
     26 C18        -7.5274   -2.0505   -5.9315 C.3       1 <0>         0.0396
     27 C19        -8.8296   -2.2369   -6.6669 C.2       1 <0>         0.5235
     28 O3         -9.2367   -3.3541   -6.9054 O.2       1 <0>        -0.4948
     29 N5         -9.5417   -1.1620   -7.0593 N.am      1 <0>        -0.7323
     30 C20       -10.8076   -1.3432   -7.7742 C.3       1 <0>         0.0950
     31 C21       -11.4087    0.0251   -8.1017 C.3       1 <0>        -0.0222
     32 N6        -12.6780   -0.1566   -8.8185 N.4       1 <0>        -0.5053
     33 C22       -13.2552    1.1572   -9.1330 C.3       1 <0>        -0.0464
     34 H2          1.0039    1.9031    0.0027 H         1 <0>         0.0643
     35 H3         -0.5459    1.8868   -0.8726 H         1 <0>         0.0560
     36 H4         -0.5289    1.8773    0.9072 H         1 <0>         0.0622
     37 H5          0.5293   -0.3651    0.8851 H         1 <0>         0.0779
     38 H6         -1.0205   -0.3814    0.0098 H         1 <0>         0.0636
     39 H7          0.1910   -0.1364   -2.1398 H         1 <0>         0.1016
     40 H8          1.7408   -0.1202   -1.2645 H         1 <0>         0.1269
     41 H9          3.3360   -4.0180    0.7620 H         1 <0>         0.1286
     42 H10         2.6356   -5.6005    0.3456 H         1 <0>         0.1045
     43 H11         3.6806   -5.4723   -1.8994 H         1 <0>         0.0627
     44 H12         4.3809   -3.8898   -1.4831 H         1 <0>         0.0779
     45 H13         4.9295   -6.5171   -0.0293 H         1 <0>         0.0574
     46 H14         6.0368   -5.7076   -1.1637 H         1 <0>         0.0628
     47 H15         5.6298   -4.9345    0.3871 H         1 <0>         0.0644
     48 H16        -3.5165   -5.5028   -3.7005 H         1 <0>         0.1346
     49 H17        -5.6581   -5.4778   -4.9062 H         1 <0>         0.1457
     50 H18        -5.6451   -1.2014   -4.8648 H         1 <0>         0.1381
     51 H19        -3.5085   -1.2128   -3.6501 H         1 <0>         0.1482
     52 H20        -7.7075   -1.5020   -5.0070 H         1 <0>         0.1031
     53 H21        -6.8337   -1.4893   -6.5576 H         1 <0>         0.1031
     54 H22        -9.2160   -0.2684   -6.8685 H         1 <0>         0.4110
     55 H23       -10.6274   -1.8917   -8.6987 H         1 <0>         0.0929
     56 H24       -11.5013   -1.9043   -7.1481 H         1 <0>         0.0929
     57 H25       -11.5888    0.5736   -7.1771 H         1 <0>         0.1405
     58 H26       -10.7150    0.5863   -8.7278 H         1 <0>         0.1405
     59 H27       -12.5113   -0.6643   -9.6743 H         1 <0>         0.4346
     60 H28       -13.4353    1.7056   -8.2084 H         1 <0>         0.1257
     61 H29       -12.5615    1.7183   -9.7590 H         1 <0>         0.1256
     62 H30       -14.1970    1.0224   -9.6648 H         1 <0>         0.1310
     63 H31       -13.3202   -0.6760   -8.2389 H         1 <0>         0.4346
@<TRIPOS>BOND
     1    1    2 1
     2    1   34 1
     3    1   35 1
     4    1   36 1
     5    2    3 1
     6    2   37 1
     7    2   38 1
     8    3   39 1
     9    3   40 1
    10    3    4 1
    11    4    5 1
    12    4   10 1
    13    5   17 1
    14    5    6 2
    15    6    7 1
    16    6   15 1
    17    7    9 am
    18    7    8 2
    19    9   10 1
    20    9   12 1
    21   10   11 2
    22   12   13 1
    23   12   41 1
    24   12   42 1
    25   13   14 1
    26   13   43 1
    27   13   44 1
    28   14   45 1
    29   14   46 1
    30   14   47 1
    31   15   18 1
    32   15   16 1
    33   16   19 1
    34   16   17 2
    35   19   24 ar
    36   19   20 ar
    37   20   21 ar
    38   20   48 1
    39   21   22 ar
    40   21   49 1
    41   22   23 ar
    42   22   25 1
    43   23   24 ar
    44   23   50 1
    45   24   51 1
    46   25   26 1
    47   26   27 1
    48   26   52 1
    49   26   53 1
    50   27   28 2
    51   27   29 am
    52   29   30 1
    53   29   54 1
    54   30   31 1
    55   30   55 1
    56   30   56 1
    57   31   32 1
    58   31   57 1
    59   31   58 1
    60   32   33 1
    61   32   59 1
    62   32   63 1
    63   33   60 1
    64   33   61 1
    65   33   62 1
@<TRIPOS>MOLECULE
CHEMBL183181
   41    44     0     0     0
SMALL
USER_CHARGES

@<TRIPOS>ATOM
      1 C1         -0.0187    1.5258    0.0104 C.3       1 <0>        -0.1395
      2 C2          0.0021   -0.0041    0.0020 C.3       1 <0>         0.2918
      3 C3          0.7140   -0.4917    1.1946 C.1       1 <0>        -0.1287
      4 C4          1.2818   -0.8806    2.1457 C.1       1 <0>        -0.1030
      5 C5          1.9744   -1.3550    3.3058 C.2       1 <0>         0.2377
      6 C6          2.4805   -0.4579    4.2000 C.2       1 <0>         0.0218
      7 N1          3.1402   -0.9025    5.3052 N.pl3     1 <0>        -0.2397
      8 C7          3.2880   -2.2471    5.5064 C.2       1 <0>         0.2073
      9 C8          2.7469   -3.1474    4.5539 C.2       1 <0>         0.4813
     10 N2          2.1116   -2.6778    3.5005 N.2       1 <0>        -0.5091
     11 N3          2.8828   -4.5151    4.7329 N.pl3     1 <0>        -0.8052
     12 N4          3.9567   -2.4127    6.6360 N.2       1 <0>        -0.4944
     13 C9          4.2437   -1.2234    7.1676 C.2       1 <0>         0.3283
     14 N5          3.7629   -0.2684    6.3864 N.2       1 <0>        -0.2822
     15 C10         4.9818   -1.0060    8.4294 C.2       1 <0>         0.0440
     16 C11         5.2757    0.1999    8.9840 C.2       1 <0>        -0.1385
     17 C12         5.9843   -0.0623   10.1734 C.2       1 <0>        -0.2180
     18 C13         6.0869   -1.4013   10.2847 C.2       1 <0>        -0.0067
     19 O1          5.4752   -1.9683    9.2325 O.3       1 <0>        -0.1541
     20 C14         0.7074   -0.4901   -1.2379 C.ar      1 <0>        -0.1145
     21 C15         1.7127    0.2711   -1.8044 C.ar      1 <0>        -0.1044
     22 C16         2.3597   -0.1747   -2.9418 C.ar      1 <0>        -0.1178
     23 C17         2.0018   -1.3819   -3.5122 C.ar      1 <0>        -0.1133
     24 C18         0.9972   -2.1435   -2.9451 C.ar      1 <0>        -0.1158
     25 C19         0.3531   -1.6997   -1.8054 C.ar      1 <0>        -0.1046
     26 O2         -1.3386   -0.4987    0.0122 O.3       1 <0>        -0.5353
     27 H1          1.0039    1.9031    0.0027 H         1 <0>         0.0805
     28 H2         -0.5459    1.8868   -0.8726 H         1 <0>         0.0812
     29 H3         -0.5289    1.8773    0.9072 H         1 <0>         0.0747
     30 H4          2.3588    0.6020    4.0318 H         1 <0>         0.1864
     31 H5          3.3489   -4.8585    5.5111 H         1 <0>         0.4248
     32 H6          2.5117   -5.1289    4.0798 H         1 <0>         0.4195
     33 H7          5.0165    1.1711    8.5892 H         1 <0>         0.1603
     34 H8          6.3722    0.6712   10.8647 H         1 <0>         0.1597
     35 H9          6.5759   -1.9306   11.0892 H         1 <0>         0.2143
     36 H10         1.9922    1.2143   -1.3587 H         1 <0>         0.1287
     37 H11         3.1445    0.4204   -3.3848 H         1 <0>         0.1263
     38 H12         2.5069   -1.7298   -4.4012 H         1 <0>         0.1249
     39 H13         0.7174   -3.0865   -3.3910 H         1 <0>         0.1262
     40 H14        -0.4292   -2.2966   -1.3601 H         1 <0>         0.1224
     41 H15        -1.4018   -1.4636    0.0076 H         1 <0>         0.3826
@<TRIPOS>BOND
     1    1    2 1
     2    1   27 1
     3    1   28 1
     4    1   29 1
     5    2    3 1
     6    2   20 1
     7    2   26 1
     8    3    4 3
     9    4    5 1
    10    5   10 1
    11    5    6 2
    12    6    7 1
    13    6   30 1
    14    7   14 1
    15    7    8 1
    16    8    9 1
    17    8   12 2
    18    9   10 2
    19    9   11 1
    20   11   31 1
    21   11   32 1
    22   12   13 1
    23   13   14 2
    24   13   15 1
    25   15   19 1
    26   15   16 2
    27   16   17 1
    28   16   33 1
    29   17   18 2
    30   17   34 1
    31   18   19 1
    32   18   35 1
    33   20   25 ar
    34   20   21 ar
    35   21   22 ar
    36   21   36 1
    37   22   23 ar
    38   22   37 1
    39   23   24 ar
    40   23   38 1
    41   24   25 ar
    42   24   39 1
    43   25   40 1
    44   26   41 1
@<TRIPOS>MOLECULE
CHEMBL1093313
   32    35     0     0     0
SMALL
USER_CHARGES

@<TRIPOS>ATOM
      1 C1         -0.0132    1.3829    0.0618 C.ar      1 <0>        -0.1053
      2 C2          0.4609    0.7612    1.2022 C.ar      1 <0>        -0.1043
      3 C3          1.6656    0.0858    1.1721 C.ar      1 <0>        -0.1038
      4 C4          2.3999    0.0316   -0.0038 C.ar      1 <0>         0.0786
      5 C5          1.9220    0.6562   -1.1467 C.ar      1 <0>        -0.1025
      6 C6          0.7168    1.3304   -1.1114 C.ar      1 <0>        -0.1064
      7 O1          3.5856   -0.6319   -0.0359 O.3       1 <0>        -0.2079
      8 C7          3.5613   -1.9812    0.0613 C.2       1 <0>         0.5969
      9 N1          4.7112   -2.6513    0.1558 N.2       1 <0>        -0.5839
     10 C8          4.7177   -3.9690    0.2523 C.2       1 <0>         0.7101
     11 N2          3.5331   -4.6452    0.2548 N.pl3     1 <0>        -0.4116
     12 C9          2.3579   -3.9469    0.1573 C.2       1 <0>         0.5375
     13 N3          2.3994   -2.6096    0.0663 N.2       1 <0>        -0.5679
     14 N4          1.3695   -4.8254    0.1817 N.2       1 <0>        -0.5035
     15 C10         1.8694   -6.0626    0.2914 C.2       1 <0>         0.3706
     16 N5          3.1867   -5.9984    0.3392 N.2       1 <0>        -0.3136
     17 C11         1.0713   -7.3050    0.3502 C.2       1 <0>         0.0320
     18 C12        -0.2848   -7.3855    0.2965 C.2       1 <0>        -0.1201
     19 C13        -0.6140   -8.7526    0.3845 C.2       1 <0>        -0.2193
     20 C14         0.5453   -9.4321    0.4866 C.2       1 <0>        -0.0035
     21 O2          1.5614   -8.5549    0.4605 O.3       1 <0>        -0.1597
     22 N6          5.9030   -4.6497    0.3485 N.pl3     1 <0>        -0.7793
     23 H1         -0.9574    1.9066    0.0862 H         1 <0>         0.1311
     24 H2         -0.1109    0.8040    2.1174 H         1 <0>         0.1325
     25 H3          2.0356   -0.3993    2.0632 H         1 <0>         0.1261
     26 H4          2.4919    0.6158   -2.0632 H         1 <0>         0.1337
     27 H5          0.3443    1.8168   -2.0008 H         1 <0>         0.1348
     28 H6         -0.9760   -6.5609    0.2045 H         1 <0>         0.1647
     29 H7         -1.6075   -9.1758    0.3728 H         1 <0>         0.1607
     30 H8          0.6413  -10.5044    0.5713 H         1 <0>         0.2145
     31 H9          6.7428   -4.1642    0.3459 H         1 <0>         0.4362
     32 H10         5.9024   -5.6171    0.4192 H         1 <0>         0.4323
@<TRIPOS>BOND
     1    1    6 ar
     2    1    2 ar
     3    1   23 1
     4    2    3 ar
     5    2   24 1
     6    3    4 ar
     7    3   25 1
     8    4    5 ar
     9    4    7 1
    10    5    6 ar
    11    5   26 1
    12    6   27 1
    13    7    8 1
    14    8   13 2
    15    8    9 1
    16    9   10 2
    17   10   11 1
    18   10   22 1
    19   11   16 1
    20   11   12 1
    21   12   13 1
    22   12   14 2
    23   14   15 1
    24   15   16 2
    25   15   17 1
    26   17   21 1
    27   17   18 2
    28   18   19 1
    29   18   28 1
    30   19   20 2
    31   19   29 1
    32   20   21 1
    33   20   30 1
    34   22   31 1
    35   22   32 1
@<TRIPOS>MOLECULE
CHEMBL368619
   51    55     0     0     0
SMALL
USER_CHARGES

@<TRIPOS>ATOM
      1 C1         -0.5649    1.5944   -0.5518 C.3       1 <0>        -0.0909
      2 C2         -0.4325    0.1017   -0.3924 C.2       1 <0>         0.1056
      3 C3         -0.2148   -0.8235   -1.4291 C.2       1 <0>        -0.2682
      4 C4         -0.1547   -2.0546   -0.8861 C.2       1 <0>         0.1087
      5 O1         -0.3255   -1.9321    0.4391 O.3       1 <0>        -0.0754
      6 N1         -0.4942   -0.5564    0.7304 N.2       1 <0>        -0.3130
      7 C5          0.0651   -3.3434   -1.6355 C.3       1 <0>        -0.0910
      8 C6         -0.0737   -0.4946   -2.8930 C.3       1 <0>         0.1323
      9 N2          1.3405   -0.2485   -3.2055 N.3       1 <0>        -0.5331
     10 C7          1.8291    0.9557   -2.5207 C.3       1 <0>         0.0328
     11 C8          3.3431    1.0762   -2.7242 C.3       1 <0>         0.1039
     12 N3          3.6264    1.0228   -4.1665 N.pl3     1 <0>        -0.5446
     13 C9          3.0537   -0.0841   -4.9476 C.3       1 <0>         0.1193
     14 C10         1.5511   -0.1588   -4.6565 C.3       1 <0>         0.0353
     15 C11         4.4088    1.9850   -4.7705 C.2       1 <0>         0.6554
     16 N4          5.0106    2.9090   -4.0163 N.pl3     1 <0>        -0.6006
     17 C12         5.7653    3.8418   -4.5683 C.cat     1 <0>         0.7690
     18 N5          5.9281    3.8566   -5.9229 N.pl3     1 <0>        -0.4040
     19 C13         5.3065    2.9044   -6.6877 C.2       1 <0>         0.5461
     20 N6          4.5538    1.9726   -6.0853 N.2       1 <0>        -0.5082
     21 N7          5.6226    3.1393   -7.9506 N.2       1 <0>        -0.4673
     22 C14         6.4251    4.2089   -8.0223 C.2       1 <0>         0.4160
     23 N8          6.6370    4.6776   -6.8070 N.2       1 <0>        -0.2959
     24 C15         6.9857    4.7752   -9.2668 C.2       1 <0>        -0.0056
     25 C16         6.7711    4.3056  -10.5245 C.2       1 <0>        -0.0891
     26 C17         7.4935    5.1416  -11.3986 C.2       1 <0>        -0.2217
     27 C18         8.1071    6.0706  -10.6393 C.2       1 <0>         0.0250
     28 O2          7.7935    5.8497   -9.3526 O.3       1 <0>        -0.1584
     29 N9          6.3788    4.7864   -3.7877 N.pl3     1 <0>        -0.7469
     30 H1          0.4190    2.0568   -0.4739 H         1 <0>         0.0849
     31 H2         -0.9957    1.8188   -1.5276 H         1 <0>         0.0851
     32 H3         -1.2140    1.9872    0.2309 H         1 <0>         0.0881
     33 H4          1.1335   -3.5513   -1.6952 H         1 <0>         0.0995
     34 H5         -0.4348   -4.1581   -1.1116 H         1 <0>         0.0890
     35 H6         -0.3442   -3.2531   -2.6417 H         1 <0>         0.0958
     36 H7         -0.4375   -1.3308   -3.4900 H         1 <0>         0.0967
     37 H8         -0.6571    0.3970   -3.1230 H         1 <0>         0.0541
     38 H9          1.3354    1.8350   -2.9344 H         1 <0>         0.0515
     39 H10         1.6100    0.8826   -1.4554 H         1 <0>         0.1078
     40 H11         3.6930    2.0249   -2.3172 H         1 <0>         0.0800
     41 H12         3.8470    0.2508   -2.2213 H         1 <0>         0.1168
     42 H13         3.2122    0.0976   -6.0106 H         1 <0>         0.1238
     43 H14         3.5297   -1.0210   -4.6584 H         1 <0>         0.1066
     44 H15         1.1303   -1.0403   -5.1403 H         1 <0>         0.1110
     45 H16         1.0612    0.7360   -5.0406 H         1 <0>         0.0515
     46 H17         6.1643    3.4557  -10.8002 H         1 <0>         0.1701
     47 H18         7.5459    5.0543  -12.4738 H         1 <0>         0.1685
     48 H19         8.7420    6.8639  -11.0054 H         1 <0>         0.2224
     49 H20         6.2598    4.7719   -2.8251 H         1 <0>         0.4468
     50 H21         6.9322    5.4694   -4.1977 H         1 <0>         0.4602
     51 H22         4.8918    2.8949   -3.0537 H         1 <0>         0.4545
@<TRIPOS>BOND
     1    1    2 1
     2    1   30 1
     3    1   31 1
     4    1   32 1
     5    2    6 2
     6    2    3 1
     7    3    4 2
     8    3    8 1
     9    4    5 1
    10    4    7 1
    11    5    6 1
    12    7   33 1
    13    7   34 1
    14    7   35 1
    15    8    9 1
    16    8   36 1
    17    8   37 1
    18    9   14 1
    19    9   10 1
    20   10   11 1
    21   10   38 1
    22   10   39 1
    23   11   12 1
    24   11   40 1
    25   11   41 1
    26   12   13 1
    27   12   15 1
    28   13   14 1
    29   13   42 1
    30   13   43 1
    31   14   44 1
    32   14   45 1
    33   15   20 2
    34   15   16 1
    35   16   17 2
    36   16   51 1
    37   17   18 1
    38   17   29 1
    39   18   23 1
    40   18   19 1
    41   19   20 1
    42   19   21 2
    43   21   22 1
    44   22   23 2
    45   22   24 1
    46   24   28 1
    47   24   25 2
    48   25   26 1
    49   25   46 1
    50   26   27 2
    51   26   47 1
    52   27   28 1
    53   27   48 1
    54   29   49 1
    55   29   50 1
@<TRIPOS>MOLECULE
CHEMBL376346
   60    65     0     0     0
SMALL
USER_CHARGES

@<TRIPOS>ATOM
      1 C1         -0.2029    0.6078   -0.4243 C.ar      1 <0>        -0.1557
      2 C2          0.8642    1.4827   -0.3370 C.ar      1 <0>        -0.0788
      3 C3          2.1557    0.9955   -0.2823 C.ar      1 <0>        -0.1502
      4 C4          2.3815   -0.3730   -0.3145 C.ar      1 <0>         0.1247
      5 C5          1.3091   -1.2487   -0.4016 C.ar      1 <0>        -0.2136
      6 C6          0.0195   -0.7564   -0.4566 C.ar      1 <0>        -0.0799
      7 O1          3.6511   -0.8547   -0.2612 O.3       1 <0>        -0.2945
      8 C7          3.8083   -2.2746   -0.2988 C.3       1 <0>         0.0610
      9 C8          5.2960   -2.6250   -0.2294 C.3       1 <0>         0.0893
     10 H1          5.4167   -3.7053   -0.3101 H         1 <0>         0.0664
     11 C9          6.0305   -1.9459   -1.3846 C.3       1 <0>        -0.1142
     12 C10         7.5171   -2.3086   -1.3043 C.3       1 <0>        -0.1229
     13 C11         8.0613   -1.8420    0.0463 C.3       1 <0>        -0.1141
     14 C12         7.2698   -2.4968    1.1834 C.3       1 <0>         0.0724
     15 H2          7.4069   -3.5776    1.1485 H         1 <0>         0.0569
     16 N1          5.8451   -2.1678    1.0573 N.3       1 <0>        -0.5103
     17 C13         5.0574   -2.7601    2.1518 C.3       1 <0>         0.0247
     18 C14         5.5162   -2.1870    3.4944 C.3       1 <0>         0.1057
     19 N2          6.9669   -2.4062    3.6104 N.pl3     1 <0>        -0.5428
     20 C15         7.8166   -1.9518    2.5097 C.3       1 <0>         0.1189
     21 C16         7.5084   -3.0238    4.7187 C.2       1 <0>         0.6551
     22 N3          6.7165   -3.3342    5.7488 N.pl3     1 <0>        -0.6002
     23 C17         7.2084   -3.9258    6.8223 C.cat     1 <0>         0.7691
     24 N4          8.5397   -4.2204    6.8737 N.pl3     1 <0>        -0.4041
     25 C18         9.3437   -3.8980    5.8117 C.2       1 <0>         0.5465
     26 N5          8.8014   -3.3028    4.7396 N.2       1 <0>        -0.5084
     27 N6         10.5727   -4.2851    6.1108 N.2       1 <0>        -0.4675
     28 C19        10.5849   -4.8446    7.3273 C.2       1 <0>         0.4159
     29 N7          9.3644   -4.8256    7.8286 N.2       1 <0>        -0.2962
     30 C20        11.7778   -5.3970    8.0023 C.2       1 <0>        -0.0053
     31 C21        13.0409   -5.4180    7.4997 C.2       1 <0>        -0.0892
     32 C22        13.8545   -6.0321    8.4722 C.2       1 <0>        -0.2216
     33 C23        13.0563   -6.3523    9.5098 C.2       1 <0>         0.0248
     34 O2         11.8037   -5.9620    9.2249 O.3       1 <0>        -0.1584
     35 N8          6.3894   -4.2404    7.8749 N.pl3     1 <0>        -0.7471
     36 H3         -1.2121    0.9906   -0.4629 H         1 <0>         0.1254
     37 H4          0.6879    2.5480   -0.3120 H         1 <0>         0.1306
     38 H5          2.9889    1.6793   -0.2148 H         1 <0>         0.1303
     39 H6          1.4823   -2.3144   -0.4272 H         1 <0>         0.1231
     40 H7         -0.8157   -1.4378   -0.5245 H         1 <0>         0.1248
     41 H8          3.2901   -2.7201    0.5504 H         1 <0>         0.0625
     42 H9          3.3866   -2.6624   -1.2260 H         1 <0>         0.0726
     43 H10         5.6203   -2.2930   -2.3329 H         1 <0>         0.0745
     44 H11         5.9133   -0.8650   -1.3071 H         1 <0>         0.0876
     45 H12         7.6355   -3.3885   -1.3932 H         1 <0>         0.0624
     46 H13         8.0590   -1.8112   -2.1087 H         1 <0>         0.0777
     47 H14         9.1118   -2.1210    0.1291 H         1 <0>         0.0785
     48 H15         7.9694   -0.7583    0.1186 H         1 <0>         0.0815
     49 H16         4.0020   -2.5320    2.0027 H         1 <0>         0.1111
     50 H17         5.1959   -3.8412    2.1535 H         1 <0>         0.0482
     51 H18         5.3008   -1.1192    3.5322 H         1 <0>         0.1205
     52 H19         5.0004   -2.6966    4.3082 H         1 <0>         0.0808
     53 H20         8.8342   -2.3126    2.6596 H         1 <0>         0.1233
     54 H21         7.8163   -0.8621    2.4833 H         1 <0>         0.1060
     55 H22        13.3589   -5.0378    6.5402 H         1 <0>         0.1701
     56 H23        14.9169   -6.2124    8.3998 H         1 <0>         0.1684
     57 H24        13.3726   -6.8381   10.4210 H         1 <0>         0.2224
     58 H25         5.4437   -4.0287    7.8338 H         1 <0>         0.4467
     59 H26         5.7707   -3.1226    5.7081 H         1 <0>         0.4544
     60 H27         6.7554   -4.6749    8.6612 H         1 <0>         0.4602
@<TRIPOS>BOND
     1    1    6 ar
     2    1    2 ar
     3    1   36 1
     4    2    3 ar
     5    2   37 1
     6    3    4 ar
     7    3   38 1
     8    4    5 ar
     9    4    7 1
    10    5    6 ar
    11    5   39 1
    12    6   40 1
    13    7    8 1
    14    8    9 1
    15    8   41 1
    16    8   42 1
    17    9   10 1
    18    9   16 1
    19    9   11 1
    20   11   12 1
    21   11   43 1
    22   11   44 1
    23   12   13 1
    24   12   45 1
    25   12   46 1
    26   13   14 1
    27   13   47 1
    28   13   48 1
    29   14   15 1
    30   14   20 1
    31   14   16 1
    32   16   17 1
    33   17   18 1
    34   17   49 1
    35   17   50 1
    36   18   19 1
    37   18   51 1
    38   18   52 1
    39   19   20 1
    40   19   21 1
    41   20   53 1
    42   20   54 1
    43   21   26 2
    44   21   22 1
    45   22   23 2
    46   22   59 1
    47   23   24 1
    48   23   35 1
    49   24   29 1
    50   24   25 1
    51   25   26 1
    52   25   27 2
    53   27   28 1
    54   28   29 2
    55   28   30 1
    56   30   34 1
    57   30   31 2
    58   31   32 1
    59   31   55 1
    60   32   33 2
    61   32   56 1
    62   33   34 1
    63   33   57 1
    64   35   58 1
    65   35   60 1
@<TRIPOS>MOLECULE
CHEMBL393410
   66    71     0     0     0
SMALL
USER_CHARGES

@<TRIPOS>ATOM
      1 C1         -0.0173    1.4248    0.0099 C.3       1 <0>         0.0302
      2 O1          0.0021   -0.0041    0.0020 O.3       1 <0>        -0.3855
      3 C2          0.6734   -0.5824    1.1231 C.3       1 <0>         0.0609
      4 C3          0.6327   -2.1077    1.0107 C.3       1 <0>         0.0602
      5 O2          1.3824   -2.5212   -0.1334 O.3       1 <0>        -0.3022
      6 C4          1.4474   -3.8572   -0.3792 C.ar      1 <0>         0.1597
      7 C5          0.7975   -4.7488    0.4613 C.ar      1 <0>        -0.2148
      8 C6          0.8620   -6.1064    0.2129 C.ar      1 <0>        -0.0552
      9 C7          1.5775   -6.5790   -0.8782 C.ar      1 <0>         0.0989
     10 C8          2.2290   -5.6854   -1.7209 C.ar      1 <0>         0.1352
     11 C9          2.1587   -4.3267   -1.4734 C.ar      1 <0>        -0.1864
     12 F1          2.9260   -6.1438   -2.7836 F         1 <0>        -0.1269
     13 N1          1.6436   -7.9556   -1.1303 N.pl3     1 <0>        -0.6720
     14 C10         2.7127   -8.7796   -0.5460 C.3       1 <0>         0.1502
     15 C11         2.0729   -9.9871    0.1474 C.3       1 <0>         0.0442
     16 N2          1.1985  -10.6869   -0.8032 N.3       1 <0>        -0.5296
     17 C12         0.0873   -9.8292   -1.2360 C.3       1 <0>         0.0348
     18 C13         0.6422   -8.6163   -1.9812 C.3       1 <0>         0.1495
     19 C14         0.7005  -11.9454   -0.2320 C.3       1 <0>         0.0421
     20 C15         0.0051  -12.7611   -1.3238 C.3       1 <0>         0.1415
     21 N3         -0.4916  -14.0161   -0.7542 N.pl3     1 <0>        -0.3544
     22 C16         0.1984  -15.1891   -0.6831 C.2       1 <0>         0.3727
     23 C17        -0.6547  -16.1174   -0.0671 C.2       1 <0>        -0.2676
     24 C18        -1.8605  -15.4521    0.2184 C.2       1 <0>         0.1318
     25 N4         -1.7548  -14.2153   -0.1836 N.2       1 <0>        -0.2644
     26 C19        -0.1571  -17.4784    0.1361 C.2       1 <0>         0.4065
     27 N5         -0.6612  -18.5753    0.6622 N.2       1 <0>        -0.5164
     28 C20         0.2406  -19.5628    0.5932 C.2       1 <0>         0.3504
     29 N6          1.3391  -19.1094    0.0193 N.2       1 <0>        -0.2994
     30 N7          1.1147  -17.7616   -0.2893 N.pl3     1 <0>        -0.3762
     31 C21         1.8691  -16.7890   -0.8785 C.2       1 <0>         0.6921
     32 N8          1.4265  -15.5693   -1.0620 N.2       1 <0>        -0.5594
     33 N9          3.1420  -17.1007   -1.2959 N.pl3     1 <0>        -0.8017
     34 C22         0.0377  -20.9426    1.0824 C.2       1 <0>         0.0424
     35 C23         0.9466  -21.9518    1.0230 C.2       1 <0>        -0.1372
     36 C24         0.3358  -23.0826    1.6004 C.2       1 <0>        -0.2199
     37 C25        -0.9030  -22.7117    1.9797 C.2       1 <0>        -0.0043
     38 O3         -1.0778  -21.4170    1.6698 O.3       1 <0>        -0.1522
     39 H1          1.0053    1.8021    0.0021 H         1 <0>         0.0437
     40 H2         -0.5445    1.7859   -0.8732 H         1 <0>         0.0888
     41 H3         -0.5275    1.7763    0.9067 H         1 <0>         0.0426
     42 H4          1.7103   -0.2468    1.1385 H         1 <0>         0.0630
     43 H5          0.1775   -0.2725    2.0430 H         1 <0>         0.0741
     44 H6          1.0656   -2.5499    1.9080 H         1 <0>         0.0813
     45 H7         -0.4012   -2.4369    0.9060 H         1 <0>         0.0750
     46 H8          0.2408   -4.3816    1.3108 H         1 <0>         0.1342
     47 H9          0.3559   -6.7998    0.8682 H         1 <0>         0.1323
     48 H10         2.6611   -3.6315   -2.1296 H         1 <0>         0.1440
     49 H11         3.3828   -9.1226   -1.3343 H         1 <0>         0.0617
     50 H12         3.2709   -8.1920    0.1829 H         1 <0>         0.0733
     51 H13         2.8540  -10.6655    0.4905 H         1 <0>         0.0822
     52 H14         1.4851   -9.6475    1.0002 H         1 <0>         0.0377
     53 H15        -0.5717  -10.3931   -1.8962 H         1 <0>         0.0839
     54 H16        -0.4729   -9.4918   -0.3640 H         1 <0>         0.0396
     55 H17        -0.1679   -7.9208   -2.2006 H         1 <0>         0.0738
     56 H18         1.1094   -8.9433   -2.9101 H         1 <0>         0.0612
     57 H19         1.5361  -12.5169    0.1719 H         1 <0>         0.0818
     58 H20        -0.0093  -11.7266    0.5657 H         1 <0>         0.0446
     59 H21        -0.8306  -12.1896   -1.7277 H         1 <0>         0.1012
     60 H22         0.7149  -12.9799   -2.1216 H         1 <0>         0.1096
     61 H23        -2.7258  -15.8898    0.6938 H         1 <0>         0.2023
     62 H24         3.4878  -17.9981   -1.1693 H         1 <0>         0.4263
     63 H25         3.6939  -16.4232   -1.7169 H         1 <0>         0.4309
     64 H26         1.9440  -21.8973    0.6124 H         1 <0>         0.1600
     65 H27         0.7768  -24.0616    1.7166 H         1 <0>         0.1594
     66 H28        -1.6325  -23.3489    2.4572 H         1 <0>         0.2141
@<TRIPOS>BOND
     1    1    2 1
     2    1   39 1
     3    1   40 1
     4    1   41 1
     5    2    3 1
     6    3    4 1
     7    3   42 1
     8    3   43 1
     9    4    5 1
    10    4   44 1
    11    4   45 1
    12    5    6 1
    13    6   11 ar
    14    6    7 ar
    15    7    8 ar
    16    7   46 1
    17    8    9 ar
    18    8   47 1
    19    9   10 ar
    20    9   13 1
    21   10   11 ar
    22   10   12 1
    23   11   48 1
    24   13   18 1
    25   13   14 1
    26   14   15 1
    27   14   49 1
    28   14   50 1
    29   15   16 1
    30   15   51 1
    31   15   52 1
    32   16   17 1
    33   16   19 1
    34   17   18 1
    35   17   53 1
    36   17   54 1
    37   18   55 1
    38   18   56 1
    39   19   20 1
    40   19   57 1
    41   19   58 1
    42   20   21 1
    43   20   59 1
    44   20   60 1
    45   21   25 1
    46   21   22 1
    47   22   32 1
    48   22   23 2
    49   23   24 1
    50   23   26 1
    51   24   25 2
    52   24   61 1
    53   26   30 1
    54   26   27 2
    55   27   28 1
    56   28   29 2
    57   28   34 1
    58   29   30 1
    59   30   31 1
    60   31   32 2
    61   31   33 1
    62   33   62 1
    63   33   63 1
    64   34   38 1
    65   34   35 2
    66   35   36 1
    67   35   64 1
    68   36   37 2
    69   36   65 1
    70   37   38 1
    71   37   66 1
@<TRIPOS>MOLECULE
CHEMBL283939
   63    66     0     0     0
SMALL
USER_CHARGES

@<TRIPOS>ATOM
      1 C1         -0.0178    1.4608    0.0101 C.3       1 <0>         0.0860
      2 N1          0.0021   -0.0041    0.0020 N.am      1 <0>        -0.5115
      3 C2         -1.1900   -0.7127    0.0039 C.2       1 <0>         0.3245
      4 C3         -1.1420   -2.1045   -0.0039 C.2       1 <0>        -0.1451
      5 C4          0.1120   -2.7485   -0.0130 C.2       1 <0>         0.5935
      6 O1          0.1797   -3.9649   -0.0203 O.2       1 <0>        -0.5101
      7 N2          1.2364   -2.0030   -0.0140 N.am      1 <0>        -0.5515
      8 C5          1.1774   -0.6603   -0.0127 C.2       1 <0>         0.7082
      9 O2          2.2123   -0.0218   -0.0196 O.2       1 <0>        -0.5326
     10 C6          2.5420   -2.6674   -0.0229 C.3       1 <0>         0.0838
     11 N3         -2.4534   -2.5433   -0.0000 N.pl3     1 <0>        -0.4045
     12 C7         -3.2411   -1.4276    0.0098 C.2       1 <0>         0.3233
     13 N4         -2.4710   -0.3521    0.0120 N.2       1 <0>        -0.4855
     14 C8         -4.7052   -1.4227    0.0168 C.2       1 <0>        -0.1092
     15 C9         -5.3755   -0.2527    0.0264 C.2       1 <0>        -0.0268
     16 C10        -6.8465   -0.2478    0.0335 C.ar      1 <0>         0.0018
     17 C11        -7.5516   -1.4560    0.0361 C.ar      1 <0>        -0.2193
     18 C12        -8.9339   -1.4476    0.0432 C.ar      1 <0>         0.1498
     19 C13        -9.6244   -0.2386    0.0478 C.ar      1 <0>         0.0397
     20 C14        -8.9259    0.9657    0.0452 C.ar      1 <0>         0.1496
     21 C15        -7.5435    0.9649    0.0434 C.ar      1 <0>        -0.2079
     22 O3         -9.6044    2.1443    0.0496 O.3       1 <0>        -0.3009
     23 C16        -8.8247    3.3418    0.0465 C.3       1 <0>         0.0225
     24 O4        -10.9841   -0.2341    0.0543 O.3       1 <0>        -0.3124
     25 C17       -11.6267   -0.2333    1.3307 C.3       1 <0>         0.0355
     26 O5         -9.6202   -2.6217    0.0454 O.3       1 <0>        -0.2999
     27 C18        -8.8484   -3.8243    0.0400 C.3       1 <0>         0.0225
     28 C19        -2.9095   -3.9354   -0.0058 C.3       1 <0>         0.1078
     29 C20        -3.0613   -4.4284    1.4346 C.3       1 <0>        -0.0915
     30 C21        -3.5305   -5.8605    1.4286 C.ar      1 <0>        -0.0879
     31 C22        -4.8833   -6.1446    1.4279 C.ar      1 <0>        -0.1149
     32 C23        -5.3137   -7.4582    1.4224 C.ar      1 <0>        -0.1182
     33 C24        -4.3913   -8.4877    1.4172 C.ar      1 <0>        -0.1171
     34 C25        -3.0384   -8.2037    1.4170 C.ar      1 <0>        -0.1161
     35 C26        -2.6080   -6.8900    1.4181 C.ar      1 <0>        -0.1073
     36 H1          1.0048    1.8381    0.0023 H         1 <0>         0.1032
     37 H2         -0.5450    1.8219   -0.8730 H         1 <0>         0.0792
     38 H3         -0.5280    1.8123    0.9069 H         1 <0>         0.0793
     39 H4          2.8615   -2.8269   -1.0528 H         1 <0>         0.0767
     40 H5          3.2716   -2.0416    0.4910 H         1 <0>         0.0966
     41 H6          2.4644   -3.6280    0.4863 H         1 <0>         0.0950
     42 H7         -5.2483   -2.3562    0.0144 H         1 <0>         0.1402
     43 H8         -4.8324    0.6808    0.0289 H         1 <0>         0.1447
     44 H9         -7.0166   -2.3942    0.0323 H         1 <0>         0.1379
     45 H10        -7.0024    1.8995    0.0455 H         1 <0>         0.1425
     46 H11        -8.1913    3.3652    0.9333 H         1 <0>         0.0590
     47 H12        -8.2004    3.3666   -0.8466 H         1 <0>         0.0602
     48 H13        -9.4876    4.2070    0.0507 H         1 <0>         0.1050
     49 H14       -12.7079   -0.2295    1.1931 H         1 <0>         0.0943
     50 H15       -11.3341   -1.1248    1.8854 H         1 <0>         0.0452
     51 H16       -11.3282    0.6552    1.8871 H         1 <0>         0.0455
     52 H17        -9.5171   -4.6851    0.0424 H         1 <0>         0.1053
     53 H18        -8.2243   -3.8515   -0.8533 H         1 <0>         0.0588
     54 H19        -8.2152   -3.8536    0.9267 H         1 <0>         0.0571
     55 H20        -3.8709   -4.0007   -0.5154 H         1 <0>         0.1021
     56 H21        -2.1795   -4.5548   -0.5268 H         1 <0>         0.1116
     57 H22        -2.0999   -4.3632    1.9441 H         1 <0>         0.0839
     58 H23        -3.7914   -3.8090    1.9556 H         1 <0>         0.0813
     59 H24        -5.6040   -5.3402    1.4320 H         1 <0>         0.1202
     60 H25        -6.3707   -7.6801    1.4226 H         1 <0>         0.1238
     61 H26        -4.7276   -9.5140    1.4136 H         1 <0>         0.1233
     62 H27        -2.3178   -9.0080    1.4132 H         1 <0>         0.1243
     63 H28        -1.5511   -6.6680    1.4142 H         1 <0>         0.1254
@<TRIPOS>BOND
     1    1    2 1
     2    1   36 1
     3    1   37 1
     4    1   38 1
     5    2    8 am
     6    2    3 1
     7    3   13 1
     8    3    4 2
     9    4    5 1
    10    4   11 1
    11    5    6 2
    12    5    7 am
    13    7    8 am
    14    7   10 1
    15    8    9 2
    16   10   39 1
    17   10   40 1
    18   10   41 1
    19   11   12 1
    20   11   28 1
    21   12   13 2
    22   12   14 1
    23   14   15 2
    24   14   42 1
    25   15   16 1
    26   15   43 1
    27   16   21 ar
    28   16   17 ar
    29   17   18 ar
    30   17   44 1
    31   18   19 ar
    32   18   26 1
    33   19   20 ar
    34   19   24 1
    35   20   21 ar
    36   20   22 1
    37   21   45 1
    38   22   23 1
    39   23   46 1
    40   23   47 1
    41   23   48 1
    42   24   25 1
    43   25   49 1
    44   25   50 1
    45   25   51 1
    46   26   27 1
    47   27   52 1
    48   27   53 1
    49   27   54 1
    50   28   29 1
    51   28   55 1
    52   28   56 1
    53   29   30 1
    54   29   57 1
    55   29   58 1
    56   30   35 ar
    57   30   31 ar
    58   31   32 ar
    59   31   59 1
    60   32   33 ar
    61   32   60 1
    62   33   34 ar
    63   33   61 1
    64   34   35 ar
    65   34   62 1
    66   35   63 1
@<TRIPOS>MOLECULE
CHEMBL369338
   40    44     0     0     0
SMALL
USER_CHARGES

@<TRIPOS>ATOM
      1 C1         -0.0167    1.3790    0.0096 C.ar      1 <0>        -0.1171
      2 C2          1.1687    2.0919    0.0021 C.ar      1 <0>        -0.1170
      3 C3          2.3774    1.4258   -0.0129 C.ar      1 <0>        -0.1099
      4 C4          2.4022    0.0327   -0.0206 C.ar      1 <0>        -0.0468
      5 C5          1.2051   -0.6804   -0.0130 C.ar      1 <0>        -0.1102
      6 C6          0.0021   -0.0041    0.0020 C.ar      1 <0>        -0.1163
      7 C7          3.6988   -0.6890   -0.0373 C.ar      1 <0>        -0.0509
      8 C8          4.8951    0.0271   -0.0396 C.ar      1 <0>        -0.0821
      9 C9          6.1016   -0.6452   -0.0552 C.ar      1 <0>        -0.1011
     10 C10         6.1278   -2.0246   -0.0689 C.ar      1 <0>        -0.0613
     11 C11         4.9405   -2.7548   -0.0668 C.ar      1 <0>        -0.0678
     12 C12         3.7205   -2.0790   -0.0449 C.ar      1 <0>        -0.0534
     13 C13         5.2530   -4.2037   -0.0834 C.ar      1 <0>         0.2635
     14 C14         6.6323   -4.3794   -0.0960 C.ar      1 <0>        -0.2367
     15 C15         7.1500   -5.6742   -0.1131 C.ar      1 <0>         0.3109
     16 N1          6.2994   -6.7053   -0.1169 N.ar      1 <0>        -0.5476
     17 C16         4.9919   -6.5007   -0.1047 C.ar      1 <0>         0.5823
     18 N2          4.4695   -5.2841   -0.0875 N.ar      1 <0>        -0.5542
     19 N3          4.1429   -7.5941   -0.1091 N.pl3     1 <0>        -0.8166
     20 C17         8.6073   -5.9013   -0.1273 C.2       1 <0>         0.0357
     21 C18         9.2622   -6.9257    0.4848 C.2       1 <0>        -0.1392
     22 C19        10.6316   -6.7521    0.2120 C.2       1 <0>        -0.1562
     23 C20        10.7464   -5.6410   -0.5463 C.2       1 <0>        -0.0146
     24 O1          9.5216   -5.1338   -0.7535 O.3       1 <0>        -0.1458
     25 Br1        12.3642   -4.9229   -1.2120 Br        1 <0>         0.0639
     26 C21         7.2683   -3.0144   -0.0876 C.3       1 <0>        -0.0273
     27 H1         -0.9602    1.9042    0.0260 H         1 <0>         0.1237
     28 H2          1.1483    3.1716    0.0077 H         1 <0>         0.1255
     29 H3          3.3023    1.9833   -0.0191 H         1 <0>         0.1264
     30 H4          1.2187   -1.7603   -0.0193 H         1 <0>         0.1260
     31 H5         -0.9264   -0.5558    0.0079 H         1 <0>         0.1253
     32 H6          4.8784    1.1069   -0.0296 H         1 <0>         0.1362
     33 H7          7.0275   -0.0892   -0.0569 H         1 <0>         0.1356
     34 H8          2.7944   -2.6346   -0.0384 H         1 <0>         0.1342
     35 H9          4.5089   -8.4923   -0.1211 H         1 <0>         0.4178
     36 H10         3.1820   -7.4620   -0.1003 H         1 <0>         0.4178
     37 H11         8.8168   -7.7182    1.0679 H         1 <0>         0.1663
     38 H12        11.4384   -7.3875    0.5463 H         1 <0>         0.1679
     39 H13         7.8714   -2.8756   -0.9849 H         1 <0>         0.1077
     40 H14         7.8854   -2.8931    0.8027 H         1 <0>         0.1055
@<TRIPOS>BOND
     1    1    6 ar
     2    1    2 ar
     3    1   27 1
     4    2    3 ar
     5    2   28 1
     6    3    4 ar
     7    3   29 1
     8    4    5 ar
     9    4    7 1
    10    5    6 ar
    11    5   30 1
    12    6   31 1
    13    7   12 ar
    14    7    8 ar
    15    8    9 ar
    16    8   32 1
    17    9   10 ar
    18    9   33 1
    19   10   26 1
    20   10   11 ar
    21   11   12 ar
    22   11   13 1
    23   12   34 1
    24   13   18 ar
    25   13   14 ar
    26   14   15 ar
    27   14   26 1
    28   15   16 ar
    29   15   20 1
    30   16   17 ar
    31   17   18 ar
    32   17   19 1
    33   19   35 1
    34   19   36 1
    35   20   24 1
    36   20   21 2
    37   21   22 1
    38   21   37 1
    39   22   23 2
    40   22   38 1
    41   23   24 1
    42   23   25 1
    43   26   39 1
    44   26   40 1
@<TRIPOS>MOLECULE
CHEMBL575386
   58    63     0     0     0
SMALL
USER_CHARGES

@<TRIPOS>ATOM
      1 C1         -0.0187    1.5258    0.0104 C.3       1 <0>        -0.1538
      2 C2          0.0021   -0.0041    0.0020 C.3       1 <0>        -0.1211
      3 C3         -1.4333   -0.5336    0.0129 C.3       1 <0>        -0.1354
      4 C4         -1.4126   -2.0635    0.0045 C.3       1 <0>         0.1265
      5 N1         -2.7870   -2.5706    0.0149 N.pl3     1 <0>        -0.3354
      6 C5         -3.3016   -3.4293   -0.8825 C.2       1 <0>         0.1578
      7 C6         -4.6075   -3.6634   -0.5374 C.2       1 <0>        -0.2678
      8 C7         -4.8766   -2.8679    0.6712 C.2       1 <0>         0.3014
      9 N2         -3.7609   -2.2388    0.9641 N.2       1 <0>        -0.2479
     10 N3         -6.1183   -2.9263    1.2206 N.2       1 <0>        -0.4468
     11 C8         -7.0646   -3.6618    0.7078 C.2       1 <0>         0.6512
     12 N4         -6.9071   -4.4337   -0.4116 N.pl3     1 <0>        -0.3751
     13 C9         -5.7086   -4.4738   -1.0727 C.2       1 <0>         0.4109
     14 N5         -5.8370   -5.2833   -2.0998 N.2       1 <0>        -0.5123
     15 C10        -7.0831   -5.7750   -2.1326 C.2       1 <0>         0.3448
     16 N6         -7.7695   -5.2838   -1.1196 N.2       1 <0>        -0.2918
     17 C11        -7.6046   -6.7194   -3.1426 C.2       1 <0>         0.0432
     18 C12        -8.8675   -7.2205   -3.1893 C.2       1 <0>        -0.1369
     19 C13        -8.9244   -8.0739   -4.3090 C.2       1 <0>        -0.2190
     20 C14        -7.7062   -8.0518   -4.8845 C.2       1 <0>        -0.0052
     21 O1         -6.9128   -7.2287   -4.1802 O.3       1 <0>        -0.1533
     22 N7         -8.2979   -3.6627    1.3306 N.am      1 <0>        -0.6465
     23 C15        -8.4953   -2.9169    2.4358 C.2       1 <0>         0.5058
     24 O2         -7.5904   -2.2452    2.8835 O.2       1 <0>        -0.4282
     25 C16        -9.8405   -2.9178    3.1151 C.3       1 <0>        -0.0952
     26 C17        -9.7969   -2.0098    4.3171 C.ar      1 <0>        -0.0653
     27 C18        -9.5314   -2.5202    5.5508 C.ar      1 <0>        -0.0948
     28 C19        -9.4870   -1.6964    6.6736 C.ar      1 <0>        -0.1160
     29 C20        -9.7082   -0.3573    6.5695 C.ar      1 <0>        -0.0985
     30 C21        -9.9852    0.2059    5.3125 C.ar      1 <0>        -0.0519
     31 C22       -10.0243   -0.6313    4.1693 C.ar      1 <0>        -0.0307
     32 C23       -10.2957   -0.0669    2.9111 C.ar      1 <0>        -0.1100
     33 C24       -10.5109    1.2728    2.8063 C.ar      1 <0>        -0.1107
     34 C25       -10.4661    2.0969    3.9295 C.ar      1 <0>        -0.1179
     35 C26       -10.2194    1.5839    5.1657 C.ar      1 <0>        -0.1026
     36 H1          1.0039    1.9031    0.0027 H         1 <0>         0.0582
     37 H2         -0.5459    1.8868   -0.8726 H         1 <0>         0.0550
     38 H3         -0.5289    1.8773    0.9072 H         1 <0>         0.0568
     39 H4          0.5123   -0.3556   -0.8948 H         1 <0>         0.0660
     40 H5          0.5293   -0.3651    0.8851 H         1 <0>         0.0677
     41 H6         -1.9435   -0.1821    0.9097 H         1 <0>         0.0833
     42 H7         -1.9605   -0.1726   -0.8702 H         1 <0>         0.0712
     43 H8         -0.9024   -2.4150   -0.8923 H         1 <0>         0.1084
     44 H9         -0.8854   -2.4246    0.8875 H         1 <0>         0.0985
     45 H10        -2.7795   -3.8578   -1.7252 H         1 <0>         0.2003
     46 H11        -9.6717   -7.0061   -2.5009 H         1 <0>         0.1607
     47 H12        -9.7822   -8.6389   -4.6429 H         1 <0>         0.1595
     48 H13        -7.4169   -8.6020   -5.7677 H         1 <0>         0.2138
     49 H14        -9.0217   -4.2000    0.9725 H         1 <0>         0.4302
     50 H15       -10.5996   -2.5621    2.4184 H         1 <0>         0.1133
     51 H16       -10.0859   -3.9309    3.4338 H         1 <0>         0.1152
     52 H17        -9.3529   -3.5797    5.6610 H         1 <0>         0.1233
     53 H18        -9.2742   -2.1268    7.6410 H         1 <0>         0.1255
     54 H19        -9.6712    0.2690    7.4487 H         1 <0>         0.1281
     55 H20       -10.3329   -0.6930    2.0319 H         1 <0>         0.1203
     56 H21       -10.7193    1.7039    1.8382 H         1 <0>         0.1223
     57 H22       -10.6402    3.1570    3.8186 H         1 <0>         0.1234
     58 H23       -10.1885    2.2346    6.0271 H         1 <0>         0.1277
@<TRIPOS>BOND
     1    1    2 1
     2    1   36 1
     3    1   37 1
     4    1   38 1
     5    2    3 1
     6    2   39 1
     7    2   40 1
     8    3    4 1
     9    3   41 1
    10    3   42 1
    11    4    5 1
    12    4   43 1
    13    4   44 1
    14    5    9 1
    15    5    6 1
    16    6    7 2
    17    6   45 1
    18    7   13 1
    19    7    8 1
    20    8    9 2
    21    8   10 1
    22   10   11 2
    23   11   12 1
    24   11   22 1
    25   12   16 1
    26   12   13 1
    27   13   14 2
    28   14   15 1
    29   15   16 2
    30   15   17 1
    31   17   21 1
    32   17   18 2
    33   18   19 1
    34   18   46 1
    35   19   20 2
    36   19   47 1
    37   20   21 1
    38   20   48 1
    39   22   23 am
    40   22   49 1
    41   23   24 2
    42   23   25 1
    43   25   26 1
    44   25   50 1
    45   25   51 1
    46   26   31 ar
    47   26   27 ar
    48   27   28 ar
    49   27   52 1
    50   28   29 ar
    51   28   53 1
    52   29   30 ar
    53   29   54 1
    54   30   35 ar
    55   30   31 ar
    56   31   32 ar
    57   32   33 ar
    58   32   55 1
    59   33   34 ar
    60   33   56 1
    61   34   35 ar
    62   34   57 1
    63   35   58 1
@<TRIPOS>MOLECULE
CHEMBL402389
   34    37     0     0     0
SMALL
USER_CHARGES

@<TRIPOS>ATOM
      1 C1         -0.0167    1.3780    0.0096 C.ar      1 <0>        -0.1361
      2 C2          1.1706    2.0866    0.0021 C.ar      1 <0>        -0.0785
      3 C3          2.3773    1.4137   -0.0131 C.ar      1 <0>        -0.1626
      4 C4          2.3974    0.0291   -0.0207 C.ar      1 <0>         0.1233
      5 C5          1.2080   -0.6793   -0.0132 C.ar      1 <0>        -0.1594
      6 C6          0.0021   -0.0041    0.0020 C.ar      1 <0>        -0.0624
      7 C7          1.2281   -2.1862   -0.0220 C.3       1 <0>         0.1872
      8 N1          1.3684   -2.6807    1.3499 N.pl3     1 <0>        -0.3814
      9 C8          2.5450   -2.9302    1.9935 C.ar      1 <0>         0.3953
     10 C9          2.2066   -3.3881    3.2842 C.ar      1 <0>        -0.2914
     11 C10         0.7982   -3.3945    3.3639 C.2       1 <0>         0.1275
     12 N2          0.3177   -2.9731    2.2287 N.2       1 <0>        -0.2474
     13 C11         3.2515   -3.7226    4.1719 C.ar      1 <0>         0.3832
     14 N3          4.5072   -3.5907    3.7502 N.ar      1 <0>        -0.5725
     15 C12         4.7767   -3.1558    2.5266 C.ar      1 <0>         0.6184
     16 N4          3.8292   -2.8309    1.6625 N.ar      1 <0>        -0.5738
     17 N5          6.1003   -3.0370    2.1389 N.pl3     1 <0>        -0.8102
     18 C13         2.9592   -4.2066    5.5345 C.2       1 <0>         0.1169
     19 N6          1.7873   -4.4058    6.1239 N.2       1 <0>        -0.4677
     20 C14         1.7099   -4.8450    7.3545 C.2       1 <0>         0.0227
     21 C15         2.8498   -5.1066    8.0545 C.2       1 <0>        -0.1912
     22 S1          4.0887   -4.6899    6.8336 S.3       1 <0>         0.0952
     23 F1          3.5766   -0.6299   -0.0360 F         1 <0>        -0.1206
     24 H1         -0.9594    1.9048    0.0260 H         1 <0>         0.1329
     25 H2          1.1547    3.1665    0.0077 H         1 <0>         0.1344
     26 H3          3.3046    1.9675   -0.0193 H         1 <0>         0.1365
     27 H4         -0.9259   -0.5565    0.0083 H         1 <0>         0.1363
     28 H5          0.2975   -2.5595   -0.4494 H         1 <0>         0.1118
     29 H6          2.0689   -2.5348   -0.6216 H         1 <0>         0.1080
     30 H7          0.2163   -3.6937    4.2231 H         1 <0>         0.2058
     31 H8          6.8098   -3.2701    2.7580 H         1 <0>         0.4186
     32 H9          6.3183   -2.7208    1.2482 H         1 <0>         0.4189
     33 H10         0.7450   -4.9995    7.8143 H         1 <0>         0.1769
     34 H11         2.9712   -5.4689    9.0646 H         1 <0>         0.2051
@<TRIPOS>BOND
     1    1    6 ar
     2    1    2 ar
     3    1   24 1
     4    2    3 ar
     5    2   25 1
     6    3    4 ar
     7    3   26 1
     8    4    5 ar
     9    4   23 1
    10    5    6 ar
    11    5    7 1
    12    6   27 1
    13    7    8 1
    14    7   28 1
    15    7   29 1
    16    8   12 1
    17    8    9 1
    18    9   16 ar
    19    9   10 ar
    20   10   11 1
    21   10   13 ar
    22   11   12 2
    23   11   30 1
    24   13   14 ar
    25   13   18 1
    26   14   15 ar
    27   15   16 ar
    28   15   17 1
    29   17   31 1
    30   17   32 1
    31   18   22 1
    32   18   19 2
    33   19   20 1
    34   20   21 2
    35   20   33 1
    36   21   22 1
    37   21   34 1
@<TRIPOS>MOLECULE
CHEMBL1087183
   61    65     0     0     0
SMALL
USER_CHARGES

@<TRIPOS>ATOM
      1 C1         -0.0187    1.5258    0.0104 C.3       1 <0>        -0.1850
      2 C2          0.0021   -0.0041    0.0020 C.3       1 <0>         0.0230
      3 C3          0.7421   -0.5109    1.2415 C.3       1 <0>        -0.1847
      4 N1         -1.3761   -0.5125    0.0124 N.4       1 <0>        -0.3832
      5 C4         -1.3545   -1.9802    0.0134 C.3       1 <0>        -0.0065
      6 C5         -2.7852   -2.5150    0.1060 C.3       1 <0>        -0.1557
      7 C6         -3.5900   -2.0155   -1.0974 C.3       1 <0>         0.1366
      8 C7         -3.5435   -0.4852   -1.1304 C.3       1 <0>        -0.1610
      9 C8         -2.0847   -0.0255   -1.1772 C.3       1 <0>        -0.0075
     10 N2         -4.9804   -2.4609   -0.9758 N.am      1 <0>        -0.7262
     11 C9         -5.7427   -2.5986   -2.0787 C.2       1 <0>         0.5694
     12 O1         -5.2767   -2.3534   -3.1740 O.2       1 <0>        -0.5158
     13 C10        -7.1471   -3.0485   -1.9559 C.ar      1 <0>        -0.1231
     14 C11        -7.6821   -3.3239   -0.6993 C.ar      1 <0>        -0.0715
     15 C12        -8.9958   -3.7450   -0.5812 C.ar      1 <0>        -0.0583
     16 C13        -9.7837   -3.8940   -1.7146 C.ar      1 <0>        -0.1094
     17 C14        -9.2509   -3.6180   -2.9856 C.ar      1 <0>        -0.0358
     18 C15        -7.9372   -3.1911   -3.1007 C.ar      1 <0>        -0.0105
     19 C16       -10.3053   -3.8608   -4.0026 C.ar      1 <0>         0.3026
     20 C17       -11.4764   -4.2843   -3.3419 C.ar      1 <0>        -0.3501
     21 C18       -12.6141   -4.5741   -4.1111 C.ar      1 <0>         0.3499
     22 N3        -12.5399   -4.4367   -5.4352 N.ar      1 <0>        -0.5663
     23 C19       -11.4199   -4.0361   -6.0156 C.ar      1 <0>         0.6064
     24 N4        -10.3215   -3.7520   -5.3225 N.ar      1 <0>        -0.5599
     25 N5        -11.3912   -3.9087   -7.3884 N.pl3     1 <0>        -0.8002
     26 C20       -13.8694   -5.0232   -3.4661 C.ar      1 <0>        -0.0858
     27 C21       -13.8228   -5.8295   -2.3289 C.ar      1 <0>        -0.0605
     28 C22       -14.9957   -6.2443   -1.7322 C.ar      1 <0>        -0.1269
     29 C23       -16.2163   -5.8619   -2.2596 C.ar      1 <0>        -0.0896
     30 C24       -16.2691   -5.0626   -3.3876 C.ar      1 <0>        -0.1323
     31 C25       -15.1030   -4.6367   -3.9900 C.ar      1 <0>        -0.0641
     32 C26       -11.1964   -4.3207   -1.8976 C.2       1 <0>         0.4602
     33 O2        -11.9731   -4.6399   -1.0199 O.2       1 <0>        -0.4006
     34 H1          1.0039    1.9031    0.0027 H         1 <0>         0.1064
     35 H2         -0.5459    1.8868   -0.8726 H         1 <0>         0.0824
     36 H3         -0.5289    1.8773    0.9072 H         1 <0>         0.0812
     37 H4          0.5123   -0.3556   -0.8948 H         1 <0>         0.1372
     38 H5          0.2319   -0.1594    2.1383 H         1 <0>         0.0813
     39 H6          0.7568   -1.6008    1.2356 H         1 <0>         0.0821
     40 H7          1.7647   -0.1336    1.2338 H         1 <0>         0.1064
     41 H8         -0.8927   -2.3369   -0.9073 H         1 <0>         0.1330
     42 H9         -0.7787   -2.3341    0.8685 H         1 <0>         0.1394
     43 H10        -2.7672   -3.6049    0.1047 H         1 <0>         0.1211
     44 H11        -3.2480   -2.1591    1.0264 H         1 <0>         0.0953
     45 H12        -3.1576   -2.4132   -2.0155 H         1 <0>         0.1085
     46 H13        -4.0675   -0.1241   -2.0153 H         1 <0>         0.1185
     47 H14        -4.0220   -0.0871   -0.2355 H         1 <0>         0.0916
     48 H15        -2.0480    1.0636   -1.2009 H         1 <0>         0.1372
     49 H16        -1.6073   -0.4239   -2.0724 H         1 <0>         0.1323
     50 H17        -5.3523   -2.6566   -0.1016 H         1 <0>         0.4070
     51 H18        -7.0712   -3.2091    0.1839 H         1 <0>         0.1399
     52 H19        -9.4081   -3.9582    0.3939 H         1 <0>         0.1513
     53 H20        -7.5229   -2.9731   -4.0739 H         1 <0>         0.1539
     54 H21       -12.1829   -4.1115   -7.9109 H         1 <0>         0.4233
     55 H22       -10.5794   -3.6164   -7.8315 H         1 <0>         0.4209
     56 H23       -12.8706   -6.1289   -1.9165 H         1 <0>         0.1332
     57 H24       -14.9610   -6.8689   -0.8519 H         1 <0>         0.1299
     58 H25       -17.1317   -6.1891   -1.7891 H         1 <0>         0.1284
     59 H26       -17.2249   -4.7677   -3.7949 H         1 <0>         0.1301
     60 H27       -15.1455   -4.0090   -4.8678 H         1 <0>         0.1301
     61 H28        -1.8482   -0.1846    0.8417 H         1 <0>         0.4205
@<TRIPOS>BOND
     1    1    2 1
     2    1   34 1
     3    1   35 1
     4    1   36 1
     5    2    3 1
     6    2    4 1
     7    2   37 1
     8    3   38 1
     9    3   39 1
    10    3   40 1
    11    4    9 1
    12    4    5 1
    13    4   61 1
    14    5    6 1
    15    5   41 1
    16    5   42 1
    17    6    7 1
    18    6   43 1
    19    6   44 1
    20    7    8 1
    21    7   10 1
    22    7   45 1
    23    8    9 1
    24    8   46 1
    25    8   47 1
    26    9   48 1
    27    9   49 1
    28   10   11 am
    29   10   50 1
    30   11   12 2
    31   11   13 1
    32   13   18 ar
    33   13   14 ar
    34   14   15 ar
    35   14   51 1
    36   15   16 ar
    37   15   52 1
    38   16   32 1
    39   16   17 ar
    40   17   18 ar
    41   17   19 1
    42   18   53 1
    43   19   24 ar
    44   19   20 ar
    45   20   21 ar
    46   20   32 1
    47   21   22 ar
    48   21   26 1
    49   22   23 ar
    50   23   24 ar
    51   23   25 1
    52   25   54 1
    53   25   55 1
    54   26   31 ar
    55   26   27 ar
    56   27   28 ar
    57   27   56 1
    58   28   29 ar
    59   28   57 1
    60   29   30 ar
    61   29   58 1
    62   30   31 ar
    63   30   59 1
    64   31   60 1
    65   32   33 2
@<TRIPOS>MOLECULE
CHEMBL603809
   61    64     0     0     0
SMALL
USER_CHARGES

@<TRIPOS>ATOM
      1 C1         -0.0187    1.5258    0.0104 C.3       1 <0>        -0.1676
      2 C2          0.0021   -0.0041    0.0020 C.3       1 <0>         0.1127
      3 N1          0.7106   -0.4894    1.1889 N.am      1 <0>        -0.7272
      4 C3          0.8538   -1.8138    1.3937 C.2       1 <0>         0.4958
      5 O1          0.3960   -2.6038    0.5954 O.2       1 <0>        -0.5075
      6 C4          1.5826   -2.3130    2.6146 C.3       1 <0>         0.0422
      7 H1          1.1224   -1.9026    3.5134 H         1 <0>         0.1303
      8 C5          3.0665   -1.8924    2.5472 C.3       1 <0>         0.0521
      9 H2          3.3680   -1.6973    1.5180 H         1 <0>         0.0965
     10 C6          3.7905   -3.1472    3.1069 C.3       1 <0>         0.0781
     11 H3          4.7968   -3.2354    2.6974 H         1 <0>         0.1019
     12 C7          2.8715   -4.2772    2.5784 C.3       1 <0>         0.3183
     13 O2          1.5379   -3.7441    2.6559 O.3       1 <0>        -0.3315
     14 N2          2.9919   -5.4677    3.4236 N.pl3     1 <0>        -0.4572
     15 C8          2.1766   -5.8053    4.4628 C.2       1 <0>         0.2988
     16 N3          2.5723   -6.9263    4.9930 N.2       1 <0>        -0.4647
     17 C9          3.6633   -7.3788    4.3307 C.ar      1 <0>        -0.0879
     18 C10         3.9429   -6.4511    3.3111 C.ar      1 <0>         0.3072
     19 N4          4.9737   -6.6676    2.5041 N.ar      1 <0>        -0.5348
     20 C11         5.7314   -7.7457    2.6519 C.ar      1 <0>         0.4767
     21 N5          5.5007   -8.6498    3.5999 N.ar      1 <0>        -0.5753
     22 C12         4.4960   -8.5057    4.4546 C.ar      1 <0>         0.5153
     23 N6          4.2627   -9.4522    5.4370 N.pl3     1 <0>        -0.8124
     24 C13         6.8347   -7.9436    1.7608 C.1       1 <0>        -0.0632
     25 C14         7.7393   -8.1058    1.0302 C.1       1 <0>        -0.1262
     26 C15         8.8734   -8.3091    0.1141 C.3       1 <0>         0.1763
     27 N7          9.5656   -9.5574    0.4615 N.3       1 <0>        -0.5394
     28 C16        10.2032   -9.4563    1.7818 C.3       1 <0>         0.0219
     29 C17        10.8608  -10.7932    2.1312 C.3       1 <0>        -0.0017
     30 N8         11.8615  -11.1285    1.1095 N.4       1 <0>        -0.3889
     31 C18        11.2058  -11.2502   -0.1992 C.3       1 <0>        -0.0024
     32 C19        10.5511   -9.9172   -0.5679 C.3       1 <0>         0.0259
     33 C20        12.5052  -12.4030    1.4548 C.3       1 <0>        -0.0458
     34 O3          3.8189   -3.1310    4.5355 O.3       1 <0>        -0.5342
     35 O4          3.3094   -0.7503    3.3710 O.3       1 <0>        -0.5371
     36 H4          1.0039    1.9031    0.0027 H         1 <0>         0.0630
     37 H5         -0.5459    1.8868   -0.8726 H         1 <0>         0.0794
     38 H6         -0.5289    1.8773    0.9072 H         1 <0>         0.0646
     39 H7         -1.0205   -0.3814    0.0098 H         1 <0>         0.0727
     40 H8          0.5123   -0.3556   -0.8948 H         1 <0>         0.0713
     41 H9          1.0768    0.1425    1.8273 H         1 <0>         0.3974
     42 H10         3.1239   -4.5183    1.5458 H         1 <0>         0.1319
     43 H11         1.3277   -5.2275    4.7972 H         1 <0>         0.2258
     44 H12         3.5185   -9.3424    6.0494 H         1 <0>         0.4239
     45 H13         4.8434  -10.2254    5.5132 H         1 <0>         0.4109
     46 H14         8.5065   -8.3701   -0.9104 H         1 <0>         0.1182
     47 H15         9.5665   -7.4726    0.2027 H         1 <0>         0.0782
     48 H16        10.9608   -8.6728    1.7609 H         1 <0>         0.0642
     49 H17         9.4501   -9.2145    2.5318 H         1 <0>         0.1271
     50 H18        11.3465  -10.7159    3.1039 H         1 <0>         0.1369
     51 H19        10.1009  -11.5738    2.1655 H         1 <0>         0.1389
     52 H20        11.9473  -11.5119   -0.9541 H         1 <0>         0.1377
     53 H21        10.4442  -12.0286   -0.1530 H         1 <0>         0.1387
     54 H22        10.0518  -10.0116   -1.5322 H         1 <0>         0.1277
     55 H23        11.3144   -9.1413   -0.6276 H         1 <0>         0.0651
     56 H24        11.7525  -13.1902    1.4985 H         1 <0>         0.1233
     57 H25        13.2479  -12.6521    0.6968 H         1 <0>         0.1243
     58 H26        12.9930  -12.3125    2.4254 H         1 <0>         0.1242
     59 H27         4.2943   -2.3773    4.9109 H         1 <0>         0.3972
     60 H28         2.8099    0.0358    3.1107 H         1 <0>         0.3900
     61 H29        12.5585  -10.4000    1.0698 H         1 <0>         0.4224
@<TRIPOS>BOND
     1    1    2 1
     2    1   36 1
     3    1   37 1
     4    1   38 1
     5    2    3 1
     6    2   39 1
     7    2   40 1
     8    3    4 am
     9    3   41 1
    10    4    5 2
    11    4    6 1
    12    6    7 1
    13    6   13 1
    14    6    8 1
    15    8    9 1
    16    8   10 1
    17    8   35 1
    18   10   11 1
    19   10   12 1
    20   10   34 1
    21   12   13 1
    22   12   14 1
    23   12   42 1
    24   14   18 1
    25   14   15 1
    26   15   16 2
    27   15   43 1
    28   16   17 1
    29   17   22 ar
    30   17   18 ar
    31   18   19 ar
    32   19   20 ar
    33   20   21 ar
    34   20   24 1
    35   21   22 ar
    36   22   23 1
    37   23   44 1
    38   23   45 1
    39   24   25 3
    40   25   26 1
    41   26   27 1
    42   26   46 1
    43   26   47 1
    44   27   32 1
    45   27   28 1
    46   28   29 1
    47   28   48 1
    48   28   49 1
    49   29   30 1
    50   29   50 1
    51   29   51 1
    52   30   31 1
    53   30   33 1
    54   30   61 1
    55   31   32 1
    56   31   52 1
    57   31   53 1
    58   32   54 1
    59   32   55 1
    60   33   56 1
    61   33   57 1
    62   33   58 1
    63   34   59 1
    64   35   60 1
@<TRIPOS>MOLECULE
CHEMBL256382
   46    49     0     0     0
SMALL
USER_CHARGES

@<TRIPOS>ATOM
      1 C1        -10.6354   -7.0415    4.8034 C.3       1 <0>         0.0265
      2 O1        -10.7827   -5.6806    4.3931 O.3       1 <0>        -0.3176
      3 C2         -9.8515   -5.1915    3.5325 C.ar      1 <0>         0.1317
      4 C3         -8.8205   -6.0063    3.0877 C.ar      1 <0>        -0.2066
      5 C4         -7.8754   -5.5068    2.2126 C.ar      1 <0>        -0.0612
      6 C5         -7.9562   -4.1959    1.7804 C.ar      1 <0>        -0.1127
      7 C6         -8.9824   -3.3817    2.2227 C.ar      1 <0>        -0.0619
      8 C7         -9.9335   -3.8782    3.0929 C.ar      1 <0>        -0.1500
      9 C8         -6.9236   -3.6535    0.8262 C.3       1 <0>        -0.0922
     10 C9         -7.3793   -3.8845   -0.5916 C.2       1 <0>         0.5040
     11 O2         -8.4382   -4.4353   -0.8060 O.2       1 <0>        -0.4523
     12 N1         -6.6100   -3.4790   -1.6212 N.am      1 <0>        -0.6562
     13 C10        -6.9782   -3.7851   -2.9273 C.ar      1 <0>         0.4161
     14 C11        -6.1380   -3.4630   -3.9914 C.ar      1 <0>        -0.2140
     15 C12        -6.5504   -3.7901   -5.2847 C.ar      1 <0>         0.2753
     16 N2         -7.7263   -4.3954   -5.4549 N.ar      1 <0>        -0.4889
     17 C13        -8.4956   -4.6844   -4.4173 C.ar      1 <0>         0.4063
     18 N3         -8.1326   -4.3932   -3.1758 N.ar      1 <0>        -0.4947
     19 C14        -9.7976   -5.3582   -4.6495 C.ar      1 <0>         0.1632
     20 C15       -10.6198   -5.6631   -3.5676 C.ar      1 <0>        -0.1117
     21 C16       -11.8319   -6.2914   -3.7997 C.ar      1 <0>        -0.0850
     22 C17       -12.1809   -6.5936   -5.1078 C.ar      1 <0>        -0.1519
     23 C18       -11.3152   -6.2616   -6.1347 C.ar      1 <0>         0.0947
     24 N4        -10.1706   -5.6598   -5.8860 N.ar      1 <0>        -0.4404
     25 C19        -5.6963   -3.4697   -6.4481 C.2       1 <0>         0.1218
     26 N5         -4.5079   -2.8833   -6.4831 N.2       1 <0>        -0.4768
     27 C20        -3.8842   -2.6744   -7.6160 C.2       1 <0>         0.0207
     28 C21        -4.4585   -3.0633   -8.7880 C.2       1 <0>        -0.1978
     29 S1         -5.9846   -3.7758   -8.1860 S.3       1 <0>         0.1026
     30 H1        -11.4422   -7.3040    5.4877 H         1 <0>         0.1012
     31 H2        -10.6749   -7.6910    3.9290 H         1 <0>         0.0563
     32 H3         -9.6767   -7.1675    5.3066 H         1 <0>         0.0560
     33 H4         -8.7566   -7.0301    3.4255 H         1 <0>         0.1285
     34 H5         -7.0727   -6.1407    1.8660 H         1 <0>         0.1229
     35 H6         -9.0431   -2.3580    1.8839 H         1 <0>         0.1279
     36 H7        -10.7374   -3.2431    3.4346 H         1 <0>         0.1317
     37 H8         -6.7966   -2.5846    0.9974 H         1 <0>         0.1086
     38 H9         -5.9741   -4.1631    0.9902 H         1 <0>         0.1081
     39 H10        -5.7996   -2.9736   -1.4516 H         1 <0>         0.4245
     40 H11        -5.1913   -2.9721   -3.8201 H         1 <0>         0.1630
     41 H12       -10.3162   -5.4135   -2.5617 H         1 <0>         0.1574
     42 H13       -12.4904   -6.5407   -2.9808 H         1 <0>         0.1412
     43 H14       -13.1190   -7.0837   -5.3225 H         1 <0>         0.1400
     44 H15       -11.5836   -6.4954   -7.1543 H         1 <0>         0.1630
     45 H16        -2.9167   -2.1945   -7.6206 H         1 <0>         0.1746
     46 H17        -4.0922   -2.9711   -9.7998 H         1 <0>         0.2043
@<TRIPOS>BOND
     1    1    2 1
     2    1   30 1
     3    1   31 1
     4    1   32 1
     5    2    3 1
     6    3    8 ar
     7    3    4 ar
     8    4    5 ar
     9    4   33 1
    10    5    6 ar
    11    5   34 1
    12    6    7 ar
    13    6    9 1
    14    7    8 ar
    15    7   35 1
    16    8   36 1
    17    9   10 1
    18    9   37 1
    19    9   38 1
    20   10   11 2
    21   10   12 am
    22   12   13 1
    23   12   39 1
    24   13   18 ar
    25   13   14 ar
    26   14   15 ar
    27   14   40 1
    28   15   16 ar
    29   15   25 1
    30   16   17 ar
    31   17   18 ar
    32   17   19 1
    33   19   24 ar
    34   19   20 ar
    35   20   21 ar
    36   20   41 1
    37   21   22 ar
    38   21   42 1
    39   22   23 ar
    40   22   43 1
    41   23   24 ar
    42   23   44 1
    43   25   29 1
    44   25   26 2
    45   26   27 1
    46   27   28 2
    47   27   45 1
    48   28   29 1
    49   28   46 1
@<TRIPOS>MOLECULE
CHEMBL564473
   42    44     0     0     0
SMALL
USER_CHARGES

@<TRIPOS>ATOM
      1 C1         -0.0173    1.4248    0.0099 C.3       1 <0>         0.0329
      2 O1          0.0021   -0.0041    0.0020 O.3       1 <0>        -0.3904
      3 C2         -1.2953   -0.6030    0.0112 C.3       1 <0>         0.1129
      4 C3         -1.1560   -2.1035    0.0018 C.ar      1 <0>         0.1261
      5 C4          0.1037   -2.6726   -0.0076 C.ar      1 <0>        -0.1386
      6 C5          0.2209   -4.0539   -0.0162 C.ar      1 <0>        -0.0749
      7 C6         -0.9386   -4.8146   -0.0150 C.ar      1 <0>        -0.1516
      8 C7         -2.1635   -4.1752   -0.0054 C.ar      1 <0>         0.1075
      9 N1         -2.2370   -2.8584    0.0081 N.ar      1 <0>        -0.4657
     10 C8         -3.4300   -4.9919   -0.0040 C.3       1 <0>         0.1724
     11 N2         -3.8989   -5.1634    1.3733 N.am      1 <0>        -0.6999
     12 C9         -5.0230   -5.8649    1.6200 C.2       1 <0>         0.5753
     13 O2         -5.6473   -6.3550    0.7003 O.2       1 <0>        -0.5152
     14 C10        -5.4981   -6.0386    3.0154 C.ar      1 <0>         0.1839
     15 C11        -6.6539   -6.7657    3.2811 C.ar      1 <0>        -0.2135
     16 C12        -7.0618   -6.9013    4.6163 C.ar      1 <0>         0.3048
     17 N3         -6.3319   -6.3325    5.5752 N.ar      1 <0>        -0.5450
     18 C13        -5.2378   -5.6486    5.2784 C.ar      1 <0>         0.5813
     19 N4         -4.8202   -5.5048    4.0310 N.ar      1 <0>        -0.5529
     20 N5         -4.5066   -5.0720    6.3029 N.pl3     1 <0>        -0.8161
     21 C14        -8.2799   -7.6614    4.9536 C.2       1 <0>        -0.0051
     22 C15        -8.7785   -7.8578    6.2053 C.2       1 <0>        -0.1264
     23 C16        -9.9440   -8.6327    6.0600 C.2       1 <0>        -0.2242
     24 C17       -10.0997   -8.8699    4.7413 C.2       1 <0>        -0.0038
     25 O3         -9.0963   -8.2776    4.0763 O.3       1 <0>        -0.1618
     26 H1          1.0053    1.8021    0.0021 H         1 <0>         0.0912
     27 H2         -0.5445    1.7859   -0.8732 H         1 <0>         0.0455
     28 H3         -0.5275    1.7763    0.9067 H         1 <0>         0.0453
     29 H4         -1.8320   -0.2936    0.9080 H         1 <0>         0.0748
     30 H5         -1.8490   -0.2840   -0.8718 H         1 <0>         0.0752
     31 H6          0.9855   -2.0490   -0.0086 H         1 <0>         0.1476
     32 H7          1.1921   -4.5263   -0.0240 H         1 <0>         0.1405
     33 H8         -0.8848   -5.8932   -0.0219 H         1 <0>         0.1396
     34 H9         -4.1944   -4.4779   -0.5867 H         1 <0>         0.0922
     35 H10        -3.2327   -5.9690   -0.4449 H         1 <0>         0.0919
     36 H11        -3.4005   -4.7720    2.1077 H         1 <0>         0.4137
     37 H12        -7.2228   -7.2138    2.4799 H         1 <0>         0.1634
     38 H13        -4.7982   -5.1720    7.2227 H         1 <0>         0.4179
     39 H14        -3.7028   -4.5680    6.1010 H         1 <0>         0.4179
     40 H15        -8.3601   -7.4903    7.1306 H         1 <0>         0.1603
     41 H16       -10.5915   -8.9735    6.8544 H         1 <0>         0.1575
     42 H17       -10.9014   -9.4393    4.2945 H         1 <0>         0.2132
@<TRIPOS>BOND
     1    1    2 1
     2    1   26 1
     3    1   27 1
     4    1   28 1
     5    2    3 1
     6    3    4 1
     7    3   29 1
     8    3   30 1
     9    4    9 ar
    10    4    5 ar
    11    5    6 ar
    12    5   31 1
    13    6    7 ar
    14    6   32 1
    15    7    8 ar
    16    7   33 1
    17    8    9 ar
    18    8   10 1
    19   10   11 1
    20   10   34 1
    21   10   35 1
    22   11   12 am
    23   11   36 1
    24   12   13 2
    25   12   14 1
    26   14   19 ar
    27   14   15 ar
    28   15   16 ar
    29   15   37 1
    30   16   17 ar
    31   16   21 1
    32   17   18 ar
    33   18   19 ar
    34   18   20 1
    35   20   38 1
    36   20   39 1
    37   21   25 1
    38   21   22 2
    39   22   23 1
    40   22   40 1
    41   23   24 2
    42   23   41 1
    43   24   25 1
    44   24   42 1
@<TRIPOS>MOLECULE
CHEMBL166429
   30    31     0     0     0
SMALL
USER_CHARGES

@<TRIPOS>ATOM
      1 C1          0.2327    1.4694    1.1501 C.ar      1 <0>        -0.1978
      2 C2          0.5441    0.2631    1.7622 C.ar      1 <0>        -0.1121
      3 C3          1.6539   -0.4352    1.3831 C.ar      1 <0>        -0.1255
      4 C4          2.4874    0.0753    0.3627 C.ar      1 <0>         0.0832
      5 C5          2.1586    1.3045   -0.2519 C.ar      1 <0>        -0.1843
      6 C6          1.0428    1.9823    0.1463 C.ar      1 <0>        -0.1102
      7 C7          3.6316   -0.6318   -0.0365 C.2       1 <0>        -0.4030
      8 C8          3.6627   -2.0939    0.0660 C.2       1 <0>         0.3555
      9 N1          4.8652   -2.7506    0.1539 N.pl3     1 <0>        -0.5570
     10 N2          4.8949   -4.1478    0.2519 N.2       1 <0>        -0.1691
     11 C9          6.0335   -4.7695    0.3351 C.2       1 <0>         0.0366
     12 C10         6.0647   -6.2391    0.4381 C.ar      1 <0>        -0.0761
     13 C11         7.2855   -6.9216    0.5344 C.ar      1 <0>        -0.0640
     14 C12         7.2592   -8.3011    0.6294 C.ar      1 <0>        -0.1777
     15 C13         6.0410   -8.9576    0.6264 C.ar      1 <0>         0.0932
     16 N3          4.9068   -8.2901    0.5342 N.ar      1 <0>        -0.4850
     17 C14         4.8776   -6.9765    0.4474 C.ar      1 <0>         0.1332
     18 S1          2.2439   -2.9556    0.0757 S.3       1 <0>        -0.7184
     19 H1         -0.6503    2.0117    1.4545 H         1 <0>         0.0953
     20 H2         -0.0946   -0.1245    2.5421 H         1 <0>         0.0977
     21 H3          1.8941   -1.3734    1.8612 H         1 <0>         0.1210
     22 H4          2.7874    1.7059   -1.0329 H         1 <0>         0.0991
     23 H5          0.7890    2.9220   -0.3217 H         1 <0>         0.0964
     24 H6          4.4895   -0.0990   -0.4193 H         1 <0>         0.0927
     25 H7          6.9566   -4.2090    0.3288 H         1 <0>         0.1100
     26 H8          8.2223   -6.3841    0.5341 H         1 <0>         0.1349
     27 H9          8.1800   -8.8603    0.7048 H         1 <0>         0.1341
     28 H10         6.0183  -10.0348    0.7005 H         1 <0>         0.1527
     29 H11         3.9289   -6.4652    0.3781 H         1 <0>         0.1727
     30 H12         5.6943   -2.2471    0.1482 H         1 <0>         0.3719
@<TRIPOS>BOND
     1    1    6 ar
     2    1    2 ar
     3    1   19 1
     4    2    3 ar
     5    2   20 1
     6    3    4 ar
     7    3   21 1
     8    4    5 ar
     9    4    7 1
    10    5    6 ar
    11    5   22 1
    12    6   23 1
    13    7    8 1
    14    7   24 1
    15    8    9 2
    16    8   18 1
    17    9   10 1
    18    9   30 1
    19   10   11 2
    20   11   12 1
    21   11   25 1
    22   12   17 ar
    23   12   13 ar
    24   13   14 ar
    25   13   26 1
    26   14   15 ar
    27   14   27 1
    28   15   16 ar
    29   15   28 1
    30   16   17 ar
    31   17   29 1
@<TRIPOS>MOLECULE
CHEMBL486131
   56    59     0     0     0
SMALL
USER_CHARGES

@<TRIPOS>ATOM
      1 C1         -0.2216    1.6584   -0.8272 C.3       1 <0>        -0.0746
      2 C2         -0.0899    0.1757   -0.5923 C.2       1 <0>         0.0936
      3 C3         -0.2438   -0.8239   -1.5605 C.2       1 <0>        -0.2633
      4 C4         -0.0485   -2.0199   -0.9601 C.2       1 <0>         0.1209
      5 N1          0.2213   -1.7826    0.3507 N.pl3     1 <0>        -0.3203
      6 N2          0.1932   -0.3961    0.5493 N.2       1 <0>        -0.2618
      7 C5          0.4842   -2.7472    1.3235 C.ar      1 <0>         0.6047
      8 N3          0.5940   -2.3728    2.5866 N.ar      1 <0>        -0.5259
      9 C6          0.8446   -3.2655    3.5436 C.ar      1 <0>         0.2746
     10 C7          0.9906   -4.6073    3.1956 C.ar      1 <0>        -0.2737
     11 C8          0.8675   -4.9596    1.8536 C.ar      1 <0>         0.4457
     12 N4          0.6114   -4.0121    0.9572 N.ar      1 <0>        -0.5303
     13 N5          1.0051   -6.2858    1.4576 N.am      1 <0>        -0.6544
     14 C9          0.9895   -6.6030    0.1478 C.2       1 <0>         0.5038
     15 O1          0.7628   -5.7470   -0.6807 O.2       1 <0>        -0.4403
     16 C10         1.2537   -8.0215   -0.2871 C.3       1 <0>         0.0386
     17 N6          1.1808   -8.1062   -1.7519 N.3       1 <0>        -0.5196
     18 C11        -0.1868   -7.8507   -2.2269 C.3       1 <0>         0.0117
     19 C12        -0.2052   -7.8895   -3.7573 C.3       1 <0>         0.0656
     20 O2          0.2957   -9.1527   -4.2032 O.3       1 <0>        -0.3858
     21 C13         1.6258   -9.4338   -3.7592 C.3       1 <0>         0.0640
     22 C14         1.6627   -9.4106   -2.2288 C.3       1 <0>         0.0185
     23 C15         0.9669   -2.8374    4.9586 C.ar      1 <0>        -0.0734
     24 C16         0.7132   -1.5128    5.3234 C.ar      1 <0>        -0.0565
     25 C17         0.8418   -1.1630    6.6614 C.ar      1 <0>         0.0754
     26 C18         1.2146   -2.1333    7.5817 C.ar      1 <0>         0.0355
     27 N7          1.4464   -3.3745    7.2021 N.ar      1 <0>        -0.4473
     28 C19         1.3309   -3.7515    5.9453 C.ar      1 <0>         0.0951
     29 O3          0.6060    0.1134    7.0646 O.3       1 <0>        -0.3065
     30 C20         0.7598    0.3926    8.4576 C.3       1 <0>         0.0216
     31 C21        -0.1179   -3.3709   -1.6242 C.3       1 <0>        -0.0808
     32 H1          0.7488    2.0699   -1.1049 H         1 <0>         0.0821
     33 H2         -0.9355    1.8369   -1.6313 H         1 <0>         0.0825
     34 H3         -0.5734    2.1409    0.0847 H         1 <0>         0.0767
     35 H4         -0.4779   -0.6674   -2.6031 H         1 <0>         0.1589
     36 H5          1.1945   -5.3551    3.9477 H         1 <0>         0.1595
     37 H6          1.1123   -6.9823    2.1241 H         1 <0>         0.4248
     38 H7          2.2465   -8.3245    0.0454 H         1 <0>         0.1126
     39 H8          0.5060   -8.6816    0.1527 H         1 <0>         0.0715
     40 H9         -0.8571   -8.6158   -1.8353 H         1 <0>         0.0400
     41 H10        -0.5139   -6.8691   -1.8838 H         1 <0>         0.1039
     42 H11        -1.2272   -7.7573   -4.1125 H         1 <0>         0.0991
     43 H12         0.4232   -7.0899   -4.1493 H         1 <0>         0.0634
     44 H13         1.9280  -10.4185   -4.1156 H         1 <0>         0.1006
     45 H14         2.3075   -8.6790   -4.1512 H         1 <0>         0.0620
     46 H15         2.6858   -9.5678   -1.8870 H         1 <0>         0.0893
     47 H16         1.0220  -10.2007   -1.8372 H         1 <0>         0.0468
     48 H17         0.4251   -0.7799    4.5843 H         1 <0>         0.1592
     49 H18         1.3166   -1.8674    8.6234 H         1 <0>         0.1645
     50 H19         1.5251   -4.7792    5.6759 H         1 <0>         0.1647
     51 H20         0.0706   -0.2277    9.0307 H         1 <0>         0.0601
     52 H21         1.7836    0.1740    8.7611 H         1 <0>         0.0602
     53 H22         0.5425    1.4444    8.6435 H         1 <0>         0.1072
     54 H23         0.8858   -3.6893   -1.9058 H         1 <0>         0.0868
     55 H24        -0.5477   -4.0945   -0.9315 H         1 <0>         0.0981
     56 H25        -0.7419   -3.3060   -2.5155 H         1 <0>         0.0710
@<TRIPOS>BOND
     1    1    2 1
     2    1   32 1
     3    1   33 1
     4    1   34 1
     5    2    6 2
     6    2    3 1
     7    3    4 2
     8    3   35 1
     9    4    5 1
    10    4   31 1
    11    5    6 1
    12    5    7 1
    13    7   12 ar
    14    7    8 ar
    15    8    9 ar
    16    9   10 ar
    17    9   23 1
    18   10   11 ar
    19   10   36 1
    20   11   12 ar
    21   11   13 1
    22   13   14 am
    23   13   37 1
    24   14   15 2
    25   14   16 1
    26   16   17 1
    27   16   38 1
    28   16   39 1
    29   17   22 1
    30   17   18 1
    31   18   19 1
    32   18   40 1
    33   18   41 1
    34   19   20 1
    35   19   42 1
    36   19   43 1
    37   20   21 1
    38   21   22 1
    39   21   44 1
    40   21   45 1
    41   22   46 1
    42   22   47 1
    43   23   28 ar
    44   23   24 ar
    45   24   25 ar
    46   24   48 1
    47   25   26 ar
    48   25   29 1
    49   26   27 ar
    50   26   49 1
    51   27   28 ar
    52   28   50 1
    53   29   30 1
    54   30   51 1
    55   30   52 1
    56   30   53 1
    57   31   54 1
    58   31   55 1
    59   31   56 1
@<TRIPOS>MOLECULE
CHEMBL81616
   45    47     0     0     0
SMALL
USER_CHARGES

@<TRIPOS>ATOM
      1 C1         -0.0184    1.5028    0.0103 C.3       1 <0>        -0.0830
      2 C2          0.0021   -0.0041    0.0020 C.2       1 <0>        -0.1349
      3 C3          0.0085   -0.7989   -1.0812 C.2       1 <0>         0.0679
      4 N1          0.0288   -2.1135   -0.6929 N.pl3     1 <0>        -0.5643
      5 C4          0.0360   -2.1982    0.6728 C.ar      1 <0>         0.3502
      6 N2          0.0544   -3.2075    1.5395 N.ar      1 <0>        -0.5600
      7 C5          0.0572   -2.9780    2.8427 C.ar      1 <0>         0.4240
      8 N3          0.0420   -1.7500    3.3516 N.ar      1 <0>        -0.5870
      9 C6          0.0232   -0.6833    2.5612 C.ar      1 <0>         0.4952
     10 C7          0.0251   -0.8811    1.1704 C.ar      1 <0>        -0.2574
     11 N4          0.0075    0.5929    3.0946 N.pl3     1 <0>        -0.7038
     12 C8          0.0116    0.7796    4.5477 C.3       1 <0>         0.1180
     13 C9         -0.0081    2.2751    4.8699 C.3       1 <0>         0.1042
     14 N5         -0.0040    2.4618    6.3229 N.am      1 <0>        -0.7283
     15 C10        -0.0193    3.7052    6.8427 C.2       1 <0>         0.5124
     16 O1         -0.0364    4.6696    6.1075 O.2       1 <0>        -0.5445
     17 C11        -0.0151    3.8972    8.3374 C.3       1 <0>        -0.1711
     18 C12         0.0774   -4.1342    3.7705 C.ar      1 <0>        -0.0421
     19 C13         0.0751   -3.9255    5.1488 C.ar      1 <0>        -0.0694
     20 C14         0.0941   -5.0056    6.0076 C.ar      1 <0>        -0.1325
     21 C15         0.1158   -6.2935    5.5031 C.ar      1 <0>        -0.1007
     22 C16         0.1183   -6.5067    4.1363 C.ar      1 <0>        -0.1320
     23 C17         0.0931   -5.4344    3.2679 C.ar      1 <0>        -0.0708
     24 C18        -0.0050   -0.3174   -2.5092 C.3       1 <0>        -0.0909
     25 H1          1.0042    1.8801    0.0026 H         1 <0>         0.0708
     26 H2         -0.5455    1.8639   -0.8728 H         1 <0>         0.0728
     27 H3         -0.5286    1.8543    0.9071 H         1 <0>         0.0588
     28 H4         -0.0062    1.3643    2.5066 H         1 <0>         0.4129
     29 H5         -0.8697    0.3036    4.9776 H         1 <0>         0.0766
     30 H6          0.9101    0.3289    4.9694 H         1 <0>         0.0766
     31 H7          0.8732    2.7511    4.4399 H         1 <0>         0.0746
     32 H8         -0.9066    2.7258    4.4482 H         1 <0>         0.0744
     33 H9          0.0097    1.6904    6.9109 H         1 <0>         0.4049
     34 H10         0.0011    2.9243    8.8286 H         1 <0>         0.0774
     35 H11         0.8683    4.4657    8.6282 H         1 <0>         0.0969
     36 H12        -0.9115    4.4404    8.6365 H         1 <0>         0.0969
     37 H13         0.0588   -2.9204    5.5438 H         1 <0>         0.1353
     38 H14         0.0923   -4.8451    7.0756 H         1 <0>         0.1267
     39 H15         0.1313   -7.1357    6.1789 H         1 <0>         0.1241
     40 H16         0.1356   -7.5143    3.7480 H         1 <0>         0.1264
     41 H17         0.0901   -5.6021    2.2010 H         1 <0>         0.1348
     42 H18         1.0193   -0.1865   -2.8582 H         1 <0>         0.0800
     43 H19        -0.5112   -1.0520   -3.1355 H         1 <0>         0.0708
     44 H20        -0.5328    0.6345   -2.5667 H         1 <0>         0.0878
     45 H21         0.0368   -2.8721   -1.2974 H         1 <0>         0.4213
@<TRIPOS>BOND
     1    1    2 1
     2    1   25 1
     3    1   26 1
     4    1   27 1
     5    2   10 1
     6    2    3 2
     7    3    4 1
     8    3   24 1
     9    4    5 1
    10    4   45 1
    11    5   10 ar
    12    5    6 ar
    13    6    7 ar
    14    7    8 ar
    15    7   18 1
    16    8    9 ar
    17    9   10 ar
    18    9   11 1
    19   11   12 1
    20   11   28 1
    21   12   13 1
    22   12   29 1
    23   12   30 1
    24   13   14 1
    25   13   31 1
    26   13   32 1
    27   14   15 am
    28   14   33 1
    29   15   16 2
    30   15   17 1
    31   17   34 1
    32   17   35 1
    33   17   36 1
    34   18   23 ar
    35   18   19 ar
    36   19   20 ar
    37   19   37 1
    38   20   21 ar
    39   20   38 1
    40   21   22 ar
    41   21   39 1
    42   22   23 ar
    43   22   40 1
    44   23   41 1
    45   24   42 1
    46   24   43 1
    47   24   44 1
@<TRIPOS>MOLECULE
CHEMBL611048
   35    37     0     0     0
SMALL
USER_CHARGES

@<TRIPOS>ATOM
      1 C1         -0.0184    1.5028    0.0103 C.3       1 <0>        -0.0805
      2 C2          0.0021   -0.0041    0.0020 C.2       1 <0>         0.0234
      3 C3         -1.0833   -0.8051    0.0027 C.2       1 <0>        -0.2237
      4 C4         -0.6166   -2.1325   -0.0067 C.2       1 <0>        -0.1205
      5 C5          0.7434   -2.0699   -0.0126 C.2       1 <0>        -0.0087
      6 O1          1.1027   -0.7711   -0.0131 O.3       1 <0>        -0.1604
      7 C6          1.6633   -3.2227   -0.0231 C.ar      1 <0>         0.3069
      8 C7          3.0525   -3.0257   -0.0227 C.ar      1 <0>        -0.2142
      9 C8          3.8770   -4.1456   -0.0329 C.ar      1 <0>         0.1834
     10 N1          3.3236   -5.3582   -0.0426 N.ar      1 <0>        -0.5539
     11 C9          2.0090   -5.5063   -0.0428 C.ar      1 <0>         0.5814
     12 N2          1.1880   -4.4674   -0.0277 N.ar      1 <0>        -0.5453
     13 N3          1.4763   -6.7842   -0.0536 N.pl3     1 <0>        -0.8162
     14 C10         5.3533   -3.9925   -0.0333 C.2       1 <0>         0.5751
     15 O2          5.8490   -2.8835   -0.0248 O.2       1 <0>        -0.5160
     16 N4          6.1439   -5.0840   -0.0433 N.am      1 <0>        -0.7005
     17 C11         7.6011   -4.9329   -0.0437 C.3       1 <0>         0.1945
     18 C12         8.2473   -6.2943   -0.0557 C.2       1 <0>         0.0358
     19 C13         8.6461   -6.8806   -1.2134 C.2       1 <0>        -0.2044
     20 S1          9.3099   -8.4175   -0.5923 S.3       1 <0>         0.1200
     21 C14         9.0137   -8.1529    1.0432 C.2       1 <0>         0.0319
     22 N5          8.4561   -6.9680    1.0579 N.2       1 <0>        -0.5046
     23 H1          1.0042    1.8801    0.0026 H         1 <0>         0.0806
     24 H2         -0.5455    1.8639   -0.8728 H         1 <0>         0.0918
     25 H3         -0.5286    1.8543    0.9071 H         1 <0>         0.0919
     26 H4         -2.1155   -0.4875    0.0092 H         1 <0>         0.1571
     27 H5         -1.2205   -3.0279   -0.0082 H         1 <0>         0.1604
     28 H6          3.4707   -2.0300   -0.0150 H         1 <0>         0.1626
     29 H7          2.0651   -7.5550   -0.0609 H         1 <0>         0.4177
     30 H8          0.5143   -6.9087   -0.0538 H         1 <0>         0.4179
     31 H9          5.7481   -5.9695   -0.0501 H         1 <0>         0.4135
     32 H10         7.9085   -4.3771   -0.9295 H         1 <0>         0.0914
     33 H11         7.9106   -4.3917    0.8504 H         1 <0>         0.0899
     34 H12         8.5802   -6.5180   -2.2286 H         1 <0>         0.2006
     35 H13         9.2338   -8.8012    1.8785 H         1 <0>         0.2209
@<TRIPOS>BOND
     1    1    2 1
     2    1   23 1
     3    1   24 1
     4    1   25 1
     5    2    6 1
     6    2    3 2
     7    3    4 1
     8    3   26 1
     9    4    5 2
    10    4   27 1
    11    5    6 1
    12    5    7 1
    13    7   12 ar
    14    7    8 ar
    15    8    9 ar
    16    8   28 1
    17    9   10 ar
    18    9   14 1
    19   10   11 ar
    20   11   12 ar
    21   11   13 1
    22   13   29 1
    23   13   30 1
    24   14   15 2
    25   14   16 am
    26   16   17 1
    27   16   31 1
    28   17   18 1
    29   17   32 1
    30   17   33 1
    31   18   22 1
    32   18   19 2
    33   19   20 1
    34   19   34 1
    35   20   21 1
    36   21   22 2
    37   21   35 1
@<TRIPOS>MOLECULE
CHEMBL481132
   49    54     0     0     0
SMALL
USER_CHARGES

@<TRIPOS>ATOM
      1 C1         -0.0162    1.3433    0.0094 C.2       1 <0>        -0.2200
      2 C2          1.3252    1.7744   -0.0011 C.2       1 <0>        -0.1370
      3 C3          2.0962    0.6548   -0.0144 C.2       1 <0>         0.0420
      4 O1          1.2797   -0.4166   -0.0124 O.3       1 <0>        -0.1521
      5 C4          0.0021   -0.0041    0.0020 C.2       1 <0>        -0.0039
      6 C5          3.5736    0.6193   -0.0287 C.2       1 <0>         0.3508
      7 N1          4.3223   -0.4908   -0.0472 N.2       1 <0>        -0.5159
      8 C6          5.5979   -0.1638   -0.0558 C.2       1 <0>         0.4063
      9 C7          6.8494   -0.9218   -0.0750 C.2       1 <0>        -0.2669
     10 C8          7.1770   -2.2895   -0.0925 C.2       1 <0>         0.1316
     11 N2          8.4769   -2.4024   -0.1057 N.2       1 <0>        -0.2629
     12 N3          9.0564   -1.1275   -0.0976 N.pl3     1 <0>        -0.3553
     13 C9          8.0548   -0.2036   -0.0786 C.2       1 <0>         0.3706
     14 N4          8.0263    1.1363   -0.0638 N.2       1 <0>        -0.5615
     15 C10         6.9037    1.8122   -0.0459 C.2       1 <0>         0.6923
     16 N5          5.6820    1.2042   -0.0426 N.pl3     1 <0>        -0.3764
     17 N6          4.3634    1.6766   -0.0311 N.2       1 <0>        -0.2996
     18 N7          6.9590    3.1863   -0.0316 N.pl3     1 <0>        -0.8020
     19 C11        10.4923   -0.8370   -0.1068 C.3       1 <0>         0.1440
     20 C12        10.9797   -0.7205   -1.5524 C.3       1 <0>        -0.0979
     21 C13        12.4568   -0.4217   -1.5619 C.ar      1 <0>        -0.0686
     22 C14        12.8944    0.8905   -1.5460 C.ar      1 <0>        -0.1154
     23 C15        14.2459    1.1700   -1.5550 C.ar      1 <0>        -0.0737
     24 C16        15.1703    0.1273   -1.5798 C.ar      1 <0>        -0.0523
     25 C17        14.7237   -1.1927   -1.5953 C.ar      1 <0>        -0.0940
     26 C18        13.3698   -1.4606   -1.5808 C.ar      1 <0>        -0.1125
     27 C19        16.6241    0.4215   -1.5901 C.ar      1 <0>         0.1213
     28 C20        17.5491   -0.6223   -1.6208 C.ar      1 <0>         0.0592
     29 N8         18.8415   -0.3551   -1.6303 N.ar      1 <0>        -0.4329
     30 C21        19.2593    0.8992   -1.6109 C.ar      1 <0>         0.0437
     31 C22        18.3450    1.9377   -1.5800 C.ar      1 <0>         0.0599
     32 N9         17.0498    1.6806   -1.5758 N.ar      1 <0>        -0.4351
     33 H1         -0.8931    1.9736    0.0252 H         1 <0>         0.1594
     34 H2          1.6736    2.7966    0.0006 H         1 <0>         0.1599
     35 H3         -0.8667   -0.6456    0.0076 H         1 <0>         0.2142
     36 H4          6.4721   -3.1077   -0.0946 H         1 <0>         0.2026
     37 H5          7.8178    3.6373   -0.0348 H         1 <0>         0.4305
     38 H6          6.1392    3.7046   -0.0183 H         1 <0>         0.4265
     39 H7         10.6764    0.1019    0.4155 H         1 <0>         0.1021
     40 H8         11.0292   -1.6426    0.3939 H         1 <0>         0.1045
     41 H9         10.7956   -1.6593   -2.0747 H         1 <0>         0.0867
     42 H10        10.4428    0.0852   -2.0531 H         1 <0>         0.0821
     43 H11        12.1772    1.6977   -1.5268 H         1 <0>         0.1293
     44 H12        14.5865    2.1948   -1.5433 H         1 <0>         0.1363
     45 H13        15.4356   -2.0046   -1.6149 H         1 <0>         0.1302
     46 H14        13.0226   -2.4832   -1.5887 H         1 <0>         0.1317
     47 H15        17.2083   -1.6470   -1.6363 H         1 <0>         0.1714
     48 H16        20.3177    1.1141   -1.6188 H         1 <0>         0.1728
     49 H17        18.6914    2.9605   -1.5635 H         1 <0>         0.1741
@<TRIPOS>BOND
     1    1    5 2
     2    1    2 1
     3    1   33 1
     4    2    3 2
     5    2   34 1
     6    3    4 1
     7    3    6 1
     8    4    5 1
     9    5   35 1
    10    6   17 2
    11    6    7 1
    12    7    8 2
    13    8   16 1
    14    8    9 1
    15    9   13 2
    16    9   10 1
    17   10   11 2
    18   10   36 1
    19   11   12 1
    20   12   13 1
    21   12   19 1
    22   13   14 1
    23   14   15 2
    24   15   16 1
    25   15   18 1
    26   16   17 1
    27   18   37 1
    28   18   38 1
    29   19   20 1
    30   19   39 1
    31   19   40 1
    32   20   21 1
    33   20   41 1
    34   20   42 1
    35   21   26 ar
    36   21   22 ar
    37   22   23 ar
    38   22   43 1
    39   23   24 ar
    40   23   44 1
    41   24   25 ar
    42   24   27 1
    43   25   26 ar
    44   25   45 1
    45   26   46 1
    46   27   32 ar
    47   27   28 ar
    48   28   29 ar
    49   28   47 1
    50   29   30 ar
    51   30   31 ar
    52   30   48 1
    53   31   32 ar
    54   31   49 1
@<TRIPOS>MOLECULE
CHEMBL513009
   51    55     0     0     0
SMALL
USER_CHARGES

@<TRIPOS>ATOM
      1 C1         -0.0162    1.3433    0.0094 C.2       1 <0>        -0.2198
      2 C2          1.3252    1.7744   -0.0011 C.2       1 <0>        -0.1231
      3 C3          2.0963    0.6547   -0.0144 C.2       1 <0>         0.0300
      4 O1          1.2798   -0.4166   -0.0124 O.3       1 <0>        -0.1583
      5 C4          0.0021   -0.0041    0.0020 C.2       1 <0>         0.0013
      6 C5          3.5735    0.6192   -0.0295 C.2       1 <0>         0.3267
      7 N1          4.3781    1.6969   -0.0263 N.2       1 <0>        -0.4614
      8 C6          5.6266    1.3134   -0.0406 C.2       1 <0>         0.4614
      9 N2          6.7900    2.0161   -0.0356 N.2       1 <0>        -0.4485
     10 C7          7.9082    1.3629   -0.2463 C.2       1 <0>         0.4173
     11 N3          7.9175    0.0200   -0.5059 N.pl3     1 <0>        -0.6919
     12 C8          6.8369   -0.7538   -0.0843 C.2       1 <0>         0.6158
     13 N4          5.6347   -0.0659   -0.0582 N.pl3     1 <0>        -0.3702
     14 N5          4.3132   -0.4780   -0.0424 N.2       1 <0>        -0.2326
     15 N6          6.9474   -2.0073    0.2529 N.2       1 <0>        -0.6511
     16 C9          9.2155    2.1113   -0.2016 C.3       1 <0>         0.1038
     17 N7          8.9590    3.5279    0.0906 N.3       1 <0>        -0.6716
     18 C10        10.2135    4.2904    0.1420 C.3       1 <0>         0.1891
     19 H1         11.0175    3.7123   -0.3136 H         1 <0>         0.1378
     20 C11        10.0439    5.6313   -0.6028 C.3       1 <0>        -0.1441
     21 C12         9.7350    6.6307    0.5429 C.3       1 <0>        -0.1382
     22 C13        10.6197    6.0774    1.6878 C.3       1 <0>        -0.0073
     23 N8         10.5527    4.6043    1.5421 N.4       1 <0>        -0.3892
     24 C14        11.8532    4.0111    1.8807 C.3       1 <0>         0.0482
     25 C15        12.1389    4.2290    3.3443 C.ar      1 <0>        -0.0966
     26 C16        12.8063    5.3659    3.7756 C.ar      1 <0>        -0.1494
     27 C17        13.0511    5.5324    5.1250 C.ar      1 <0>         0.1369
     28 N9         12.6587    4.6258    5.9991 N.ar      1 <0>        -0.4525
     29 C18        12.0216    3.5323    5.6256 C.ar      1 <0>         0.1839
     30 C19        11.7361    3.3011    4.2912 C.ar      1 <0>        -0.1359
     31 Cl1        11.5296    2.3745    6.8218 Cl        1 <0>         0.0010
     32 H2         -0.8931    1.9736    0.0252 H         1 <0>         0.1618
     33 H3          1.6735    2.7967    0.0008 H         1 <0>         0.1629
     34 H4         -0.8667   -0.6456    0.0076 H         1 <0>         0.2162
     35 H5          7.8124   -2.4447    0.2170 H         1 <0>         0.3716
     36 H6          9.8496    1.6886    0.5778 H         1 <0>         0.1227
     37 H7          9.7172    2.0241   -1.1653 H         1 <0>         0.0990
     38 H8          8.3211    3.9261   -0.5823 H         1 <0>         0.3982
     39 H9         10.9652    5.9062   -1.1162 H         1 <0>         0.1114
     40 H10         9.2111    5.5798   -1.3042 H         1 <0>         0.1160
     41 H11        10.0365    7.6422    0.2705 H         1 <0>         0.1195
     42 H12         8.6799    6.5992    0.8147 H         1 <0>         0.1049
     43 H13        11.6475    6.4221    1.5736 H         1 <0>         0.1320
     44 H14        10.2218    6.3817    2.6558 H         1 <0>         0.1337
     45 H15        11.8307    2.9419    1.6702 H         1 <0>         0.1387
     46 H16        12.6340    4.4826    1.2840 H         1 <0>         0.1455
     47 H17        13.1310    6.1118    3.0652 H         1 <0>         0.1535
     48 H18        13.5702    6.4150    5.4683 H         1 <0>         0.1803
     49 H19        11.2103    2.4067    3.9914 H         1 <0>         0.1540
     50 H20         9.8419    4.2338    2.1549 H         1 <0>         0.4306
     51 H21         8.6626   -0.3868   -0.9752 H         1 <0>         0.4361
@<TRIPOS>BOND
     1    1    5 2
     2    1    2 1
     3    1   32 1
     4    2    3 2
     5    2   33 1
     6    3    4 1
     7    3    6 1
     8    4    5 1
     9    5   34 1
    10    6   14 2
    11    6    7 1
    12    7    8 2
    13    8   13 1
    14    8    9 1
    15    9   10 2
    16   10   11 1
    17   10   16 1
    18   11   12 1
    19   11   51 1
    20   12   13 1
    21   12   15 2
    22   13   14 1
    23   15   35 1
    24   16   17 1
    25   16   36 1
    26   16   37 1
    27   17   18 1
    28   17   38 1
    29   18   19 1
    30   18   23 1
    31   18   20 1
    32   20   21 1
    33   20   39 1
    34   20   40 1
    35   21   22 1
    36   21   41 1
    37   21   42 1
    38   22   23 1
    39   22   43 1
    40   22   44 1
    41   23   24 1
    42   23   50 1
    43   24   25 1
    44   24   45 1
    45   24   46 1
    46   25   30 ar
    47   25   26 ar
    48   26   27 ar
    49   26   47 1
    50   27   28 ar
    51   27   48 1
    52   28   29 ar
    53   29   30 ar
    54   29   31 1
    55   30   49 1
@<TRIPOS>MOLECULE
CHEMBL564224
   42    44     0     0     0
SMALL
USER_CHARGES

@<TRIPOS>ATOM
      1 C1         -0.0173    1.4248    0.0099 C.3       1 <0>         0.0276
      2 O1          0.0021   -0.0041    0.0020 O.3       1 <0>        -0.3167
      3 C2          0.6058   -0.6071   -1.0557 C.ar      1 <0>         0.1462
      4 C3          1.1731    0.1608   -2.0626 C.ar      1 <0>        -0.2077
      5 C4          1.7865   -0.4545   -3.1363 C.ar      1 <0>        -0.0735
      6 C5          1.8356   -1.8347   -3.2084 C.ar      1 <0>        -0.1557
      7 C6          1.2707   -2.6020   -2.2067 C.ar      1 <0>        -0.0655
      8 C7          0.6609   -1.9913   -1.1277 C.ar      1 <0>        -0.1099
      9 C8          0.0508   -2.8283   -0.0330 C.3       1 <0>        -0.0880
     10 C9         -1.4193   -3.0171   -0.3053 C.2       1 <0>         0.5125
     11 O2         -1.9221   -2.5210   -1.2910 O.2       1 <0>        -0.4412
     12 N1         -2.1753   -3.7375    0.5468 N.am      1 <0>        -0.6573
     13 C10        -3.5323   -3.9118    0.2956 C.ar      1 <0>         0.5152
     14 C11        -4.3222   -4.6490    1.1725 C.ar      1 <0>        -0.2381
     15 C12        -5.6799   -4.7965    0.8786 C.ar      1 <0>         0.3880
     16 N2         -6.1685   -4.2282   -0.2267 N.ar      1 <0>        -0.5592
     17 C13        -5.3828   -3.5349   -1.0346 C.ar      1 <0>         0.6264
     18 N3         -4.0922   -3.3715   -0.7828 N.ar      1 <0>        -0.5453
     19 N4         -5.9249   -2.9606   -2.1713 N.pl3     1 <0>        -0.7927
     20 C14        -6.5609   -5.5690    1.7758 C.2       1 <0>        -0.0381
     21 C15        -7.8677   -5.2971    2.0406 C.2       1 <0>        -0.1058
     22 C16        -8.3123   -6.2830    2.9415 C.2       1 <0>        -0.2238
     23 C17        -7.2668   -7.1004    3.1807 C.2       1 <0>         0.0128
     24 O3         -6.2129   -6.6697    2.4708 O.3       1 <0>        -0.1607
     25 N5         -3.7380   -5.2623    2.3867 N.pl3     1 <0>         0.0399
     26 O4         -3.7109   -4.6420    3.4240 O.2       1 <0>        -0.1351
     27 O5         -3.2881   -6.3835    2.3409 O.3       1 <0>        -0.1220
     28 H1          1.0053    1.8021    0.0021 H         1 <0>         0.0574
     29 H2         -0.5445    1.7859   -0.8732 H         1 <0>         0.0564
     30 H3         -0.5275    1.7763    0.9067 H         1 <0>         0.1008
     31 H4          1.1347    1.2387   -2.0069 H         1 <0>         0.1294
     32 H5          2.2279    0.1427   -3.9204 H         1 <0>         0.1263
     33 H6          2.3157   -2.3139   -4.0487 H         1 <0>         0.1264
     34 H7          1.3100   -3.6796   -2.2654 H         1 <0>         0.1289
     35 H8          0.5425   -3.8006   -0.0023 H         1 <0>         0.1118
     36 H9          0.1812   -2.3247    0.9248 H         1 <0>         0.1150
     37 H10        -1.7731   -4.1343    1.3353 H         1 <0>         0.4228
     38 H11        -6.8688   -3.0692   -2.3666 H         1 <0>         0.4238
     39 H12        -5.3608   -2.4497   -2.7727 H         1 <0>         0.4260
     40 H13        -8.4508   -4.4821    1.6378 H         1 <0>         0.1622
     41 H14        -9.3034   -6.3682    3.3622 H         1 <0>         0.1629
     42 H15        -7.2773   -7.9616    3.8324 H         1 <0>         0.2177
@<TRIPOS>BOND
     1    1    2 1
     2    1   28 1
     3    1   29 1
     4    1   30 1
     5    2    3 1
     6    3    8 ar
     7    3    4 ar
     8    4    5 ar
     9    4   31 1
    10    5    6 ar
    11    5   32 1
    12    6    7 ar
    13    6   33 1
    14    7    8 ar
    15    7   34 1
    16    8    9 1
    17    9   10 1
    18    9   35 1
    19    9   36 1
    20   10   11 2
    21   10   12 am
    22   12   13 1
    23   12   37 1
    24   13   18 ar
    25   13   14 ar
    26   14   15 ar
    27   14   25 1
    28   15   16 ar
    29   15   20 1
    30   16   17 ar
    31   17   18 ar
    32   17   19 1
    33   19   38 1
    34   19   39 1
    35   20   24 1
    36   20   21 2
    37   21   22 1
    38   21   40 1
    39   22   23 2
    40   22   41 1
    41   23   24 1
    42   23   42 1
    43   25   26 2
    44   25   27 1
@<TRIPOS>MOLECULE
CHEMBL274274
   47    51     0     0     0
SMALL
USER_CHARGES

@<TRIPOS>ATOM
      1 C1         -0.0167    1.3781    0.0096 C.ar      1 <0>        -0.1103
      2 C2          1.1709    2.0855    0.0021 C.ar      1 <0>        -0.1221
      3 C3          2.3773    1.4107   -0.0130 C.ar      1 <0>        -0.0988
      4 C4          2.3960    0.0285   -0.0201 C.ar      1 <0>        -0.1105
      5 C5          1.2084   -0.6789   -0.0117 C.ar      1 <0>        -0.0987
      6 C6          0.0021   -0.0041    0.0020 C.ar      1 <0>        -0.1220
      7 C7          3.7112   -0.7071   -0.0376 C.3       1 <0>         0.1633
      8 N1          4.1518   -0.9524    1.3379 N.pl3     1 <0>        -0.7202
      9 C8          5.3526   -1.6239    1.5771 C.ar      1 <0>         0.2674
     10 C9          6.1310   -2.0536    0.5160 C.ar      1 <0>        -0.2005
     11 C10         7.3224   -2.7192    0.7475 C.ar      1 <0>        -0.0401
     12 C11         7.7480   -2.9627    2.0389 C.ar      1 <0>        -0.1757
     13 C12         6.9826   -2.5409    3.1168 C.ar      1 <0>         0.1472
     14 C13         5.7773   -1.8603    2.8960 C.ar      1 <0>         0.0373
     15 N2          5.0146   -1.4333    3.9380 N.2       1 <0>        -0.5042
     16 C14         5.3768   -1.6349    5.1816 C.2       1 <0>         0.4687
     17 C15         6.6346   -2.3376    5.4756 C.2       1 <0>         0.2596
     18 N3          7.4118   -2.7874    4.4198 N.am      1 <0>        -0.4729
     19 C16         8.4990   -3.3973    4.9258 C.2       1 <0>         0.6596
     20 O1          9.4049   -3.8989    4.2842 O.2       1 <0>        -0.5115
     21 N4          8.4066   -3.3534    6.2711 N.am      1 <0>        -0.3773
     22 N5          7.2262   -2.6679    6.5926 N.2       1 <0>        -0.2391
     23 C17         9.3328   -3.8765    7.1811 C.ar      1 <0>         0.1722
     24 C18        10.4803   -4.5090    6.7201 C.ar      1 <0>        -0.1385
     25 C19        11.3921   -5.0241    7.6205 C.ar      1 <0>        -0.0925
     26 C20        11.1636   -4.9107    8.9796 C.ar      1 <0>        -0.1276
     27 C21        10.0219   -4.2820    9.4419 C.ar      1 <0>        -0.0971
     28 C22         9.1092   -3.7593    8.5469 C.ar      1 <0>        -0.1229
     29 N6          4.5768   -1.1866    6.2162 N.pl3     1 <0>        -0.8132
     30 H1         -0.9591    1.9053    0.0259 H         1 <0>         0.1237
     31 H2          1.1563    3.1654    0.0076 H         1 <0>         0.1244
     32 H3          3.3051    1.9634   -0.0196 H         1 <0>         0.1238
     33 H4          1.2231   -1.7588   -0.0176 H         1 <0>         0.1238
     34 H5         -0.9258   -0.5567    0.0082 H         1 <0>         0.1244
     35 H6          3.5884   -1.6586   -0.5549 H         1 <0>         0.0728
     36 H7          4.4573   -0.1052   -0.5563 H         1 <0>         0.0728
     37 H8          3.6095   -0.6484    2.0824 H         1 <0>         0.4125
     38 H9          5.8069   -1.8688   -0.4975 H         1 <0>         0.1353
     39 H10         7.9228   -3.0506   -0.0869 H         1 <0>         0.1370
     40 H11         8.6788   -3.4831    2.2101 H         1 <0>         0.1436
     41 H12        10.6591   -4.5982    5.6588 H         1 <0>         0.1538
     42 H13        12.2843   -5.5164    7.2627 H         1 <0>         0.1342
     43 H14        11.8782   -5.3144    9.6817 H         1 <0>         0.1296
     44 H15         9.8462   -4.1954   10.5040 H         1 <0>         0.1337
     45 H16         8.2201   -3.2641    8.9085 H         1 <0>         0.1372
     46 H17         3.7473   -0.7228    6.0220 H         1 <0>         0.4192
     47 H18         4.8451   -1.3359    7.1364 H         1 <0>         0.4187
@<TRIPOS>BOND
     1    1    6 ar
     2    1    2 ar
     3    1   30 1
     4    2    3 ar
     5    2   31 1
     6    3    4 ar
     7    3   32 1
     8    4    5 ar
     9    4    7 1
    10    5    6 ar
    11    5   33 1
    12    6   34 1
    13    7    8 1
    14    7   35 1
    15    7   36 1
    16    8    9 1
    17    8   37 1
    18    9   14 ar
    19    9   10 ar
    20   10   11 ar
    21   10   38 1
    22   11   12 ar
    23   11   39 1
    24   12   13 ar
    25   12   40 1
    26   13   18 1
    27   13   14 ar
    28   14   15 1
    29   15   16 2
    30   16   17 1
    31   16   29 1
    32   17   22 2
    33   17   18 1
    34   18   19 am
    35   19   20 2
    36   19   21 am
    37   21   22 1
    38   21   23 1
    39   23   28 ar
    40   23   24 ar
    41   24   25 ar
    42   24   41 1
    43   25   26 ar
    44   25   42 1
    45   26   27 ar
    46   26   43 1
    47   27   28 ar
    48   27   44 1
    49   28   45 1
    50   29   46 1
    51   29   47 1
@<TRIPOS>MOLECULE
CHEMBL163626
   71    73     0     0     0
SMALL
USER_CHARGES

@<TRIPOS>ATOM
      1 C1          0.3592    1.5728    0.0127 C.3       1 <0>        -0.1503
      2 C2          0.3386    0.0432    0.0399 C.3       1 <0>        -0.1222
      3 C3          0.7934   -0.4972   -1.3174 C.3       1 <0>        -0.1040
      4 C4          0.7731   -2.0038   -1.2906 C.ar      1 <0>         0.0531
      5 C5          1.8984   -2.7296   -0.8879 C.ar      1 <0>        -0.1850
      6 C6          1.8415   -4.1264   -0.8757 C.ar      1 <0>         0.2073
      7 N1          0.7490   -4.7637   -1.2361 N.ar      1 <0>        -0.4619
      8 C7         -0.3431   -4.1193   -1.6256 C.ar      1 <0>         0.2446
      9 C8         -0.3715   -2.7116   -1.6617 C.ar      1 <0>        -0.1549
     10 C9         -1.5892   -1.9970   -2.0892 C.2       1 <0>         0.5312
     11 O1         -1.7014   -1.6224   -3.2395 O.2       1 <0>        -0.4863
     12 O2         -2.5769   -1.7598   -1.2040 O.3       1 <0>        -0.3368
     13 C10        -3.7272   -1.0628   -1.6868 C.3       1 <0>         0.0615
     14 C11        -4.7329   -0.8875   -0.5472 C.3       1 <0>        -0.1231
     15 C12        -5.9645   -0.1412   -1.0641 C.3       1 <0>        -0.1506
     16 C13        -1.5454   -4.8870   -2.0208 C.ar      1 <0>        -0.0686
     17 C14        -2.2582   -4.5318   -3.1664 C.ar      1 <0>        -0.1039
     18 C15        -3.3780   -5.2513   -3.5294 C.ar      1 <0>        -0.1180
     19 C16        -3.7949   -6.3228   -2.7597 C.ar      1 <0>        -0.0985
     20 C17        -3.0927   -6.6798   -1.6223 C.ar      1 <0>        -0.1220
     21 C18        -1.9674   -5.9725   -1.2523 C.ar      1 <0>        -0.0687
     22 C19         3.0512   -4.9142   -0.4431 C.3       1 <0>        -0.0817
     23 C20         2.9929   -5.1498    1.0675 C.3       1 <0>         0.0694
     24 O3          4.1400   -5.8968    1.4777 O.3       1 <0>        -0.3768
     25 C21         4.1834   -6.1726    2.8791 C.3       1 <0>         0.1042
     26 C22         5.4278   -6.9605    3.1978 C.ar      1 <0>        -0.0926
     27 C23         5.4008   -8.3419    3.1562 C.ar      1 <0>        -0.0976
     28 C24         6.5424   -9.0646    3.4485 C.ar      1 <0>        -0.1230
     29 C25         7.7110   -8.4059    3.7819 C.ar      1 <0>        -0.1127
     30 C26         7.7383   -7.0244    3.8226 C.ar      1 <0>        -0.1233
     31 C27         6.5979   -6.3016    3.5262 C.ar      1 <0>        -0.0984
     32 C28         3.1332   -2.0285   -0.4806 C.2       1 <0>         0.4120
     33 O4          3.2999   -1.7170    0.6831 O.2       1 <0>        -0.4209
     34 S1          4.3646   -1.6437   -1.6807 S.3       1 <0>        -0.1610
     35 C29         5.6600   -0.8053   -0.7270 C.3       1 <0>        -0.0955
     36 C30         6.8063   -0.4111   -1.6606 C.3       1 <0>        -0.1393
     37 H1          1.3716    1.9189   -0.1954 H         1 <0>         0.0567
     38 H2         -0.3145    1.9315   -0.7655 H         1 <0>         0.0569
     39 H3          0.0351    1.9578    0.9796 H         1 <0>         0.0621
     40 H4          1.0123   -0.3155    0.8180 H         1 <0>         0.0717
     41 H5         -0.6739   -0.3029    0.2479 H         1 <0>         0.0713
     42 H6          0.1197   -0.1385   -2.0955 H         1 <0>         0.0903
     43 H7          1.8059   -0.1511   -1.5254 H         1 <0>         0.0899
     44 H8         -3.4282   -0.0838   -2.0613 H         1 <0>         0.0711
     45 H9         -4.1872   -1.6350   -2.4925 H         1 <0>         0.0719
     46 H10        -5.0320   -1.8665   -0.1727 H         1 <0>         0.0752
     47 H11        -4.2730   -0.3152    0.2585 H         1 <0>         0.0747
     48 H12        -6.6810   -0.0163   -0.2523 H         1 <0>         0.0669
     49 H13        -5.6654    0.8378   -1.4386 H         1 <0>         0.0588
     50 H14        -6.4244   -0.7134   -1.8698 H         1 <0>         0.0591
     51 H15        -1.9342   -3.6951   -3.7676 H         1 <0>         0.1337
     52 H16        -3.9306   -4.9773   -4.4159 H         1 <0>         0.1295
     53 H17        -4.6723   -6.8827   -3.0479 H         1 <0>         0.1282
     54 H18        -3.4235   -7.5168   -1.0253 H         1 <0>         0.1305
     55 H19        -1.4171   -6.2553   -0.3671 H         1 <0>         0.1305
     56 H20         3.0639   -5.8736   -0.9603 H         1 <0>         0.1093
     57 H21         3.9549   -4.3567   -0.6893 H         1 <0>         0.0941
     58 H22         2.9802   -4.1903    1.5846 H         1 <0>         0.0553
     59 H23         2.0892   -5.7072    1.3137 H         1 <0>         0.0595
     60 H24         4.1953   -5.2344    3.4338 H         1 <0>         0.0591
     61 H25         3.3043   -6.7513    3.1629 H         1 <0>         0.0602
     62 H26         4.4878   -8.8566    2.8957 H         1 <0>         0.1233
     63 H27         6.5211  -10.1440    3.4167 H         1 <0>         0.1245
     64 H28         8.6027   -8.9706    4.0110 H         1 <0>         0.1234
     65 H29         8.6512   -6.5098    4.0835 H         1 <0>         0.1240
     66 H30         6.6201   -5.2222    3.5543 H         1 <0>         0.1220
     67 H31         5.2468    0.0893   -0.2612 H         1 <0>         0.0948
     68 H32         6.0349   -1.4769    0.0453 H         1 <0>         0.0962
     69 H33         7.2195   -1.3058   -2.1264 H         1 <0>         0.0696
     70 H34         6.4314    0.2605   -2.4329 H         1 <0>         0.0686
     71 H35         7.5847    0.0927   -1.0875 H         1 <0>         0.0815
@<TRIPOS>BOND
     1    1    2 1
     2    1   37 1
     3    1   38 1
     4    1   39 1
     5    2    3 1
     6    2   40 1
     7    2   41 1
     8    3    4 1
     9    3   42 1
    10    3   43 1
    11    4    9 ar
    12    4    5 ar
    13    5    6 ar
    14    5   32 1
    15    6    7 ar
    16    6   22 1
    17    7    8 ar
    18    8    9 ar
    19    8   16 1
    20    9   10 1
    21   10   11 2
    22   10   12 1
    23   12   13 1
    24   13   14 1
    25   13   44 1
    26   13   45 1
    27   14   15 1
    28   14   46 1
    29   14   47 1
    30   15   48 1
    31   15   49 1
    32   15   50 1
    33   16   21 ar
    34   16   17 ar
    35   17   18 ar
    36   17   51 1
    37   18   19 ar
    38   18   52 1
    39   19   20 ar
    40   19   53 1
    41   20   21 ar
    42   20   54 1
    43   21   55 1
    44   22   23 1
    45   22   56 1
    46   22   57 1
    47   23   24 1
    48   23   58 1
    49   23   59 1
    50   24   25 1
    51   25   26 1
    52   25   60 1
    53   25   61 1
    54   26   31 ar
    55   26   27 ar
    56   27   28 ar
    57   27   62 1
    58   28   29 ar
    59   28   63 1
    60   29   30 ar
    61   29   64 1
    62   30   31 ar
    63   30   65 1
    64   31   66 1
    65   32   33 2
    66   32   34 1
    67   34   35 1
    68   35   36 1
    69   35   67 1
    70   35   68 1
    71   36   69 1
    72   36   70 1
    73   36   71 1
@<TRIPOS>MOLECULE
CHEMBL113142
   41    44     0     0     0
SMALL
USER_CHARGES

@<TRIPOS>ATOM
      1 C1         -0.0162    1.3434    0.0094 C.2       1 <0>        -0.2218
      2 C2          1.3251    1.7745   -0.0011 C.2       1 <0>        -0.0887
      3 C3          2.0961    0.6548   -0.0144 C.2       1 <0>        -0.0062
      4 O1          1.2796   -0.4166   -0.0124 O.3       1 <0>        -0.1583
      5 C4          0.0021   -0.0041    0.0020 C.2       1 <0>         0.0256
      6 C5          3.5734    0.6193   -0.0287 C.2       1 <0>         0.4157
      7 N1          4.3742    1.6925   -0.0248 N.2       1 <0>        -0.4645
      8 C6          5.6386    1.3040   -0.0409 C.2       1 <0>         0.5441
      9 N2          6.8046    1.9657   -0.0448 N.2       1 <0>        -0.5016
     10 C7          7.9464    1.2979   -0.0627 C.2       1 <0>         0.6561
     11 N3          7.9670   -0.0378   -0.0777 N.pl3     1 <0>        -0.5981
     12 C8          6.8416   -0.7289   -0.0744 C.cat     1 <0>         0.7695
     13 N4          5.6489   -0.0664   -0.0556 N.pl3     1 <0>        -0.4039
     14 N5          4.3107   -0.4751   -0.0417 N.2       1 <0>        -0.2939
     15 N6          6.8714   -2.0989   -0.0903 N.pl3     1 <0>        -0.7459
     16 N7          9.1377    1.9935   -0.0665 N.pl3     1 <0>        -0.6525
     17 C9          9.1306    3.4584   -0.0508 C.3       1 <0>         0.1217
     18 C10        10.5705    3.9755   -0.0588 C.3       1 <0>        -0.0898
     19 C11        10.5632    5.4824   -0.0426 C.ar      1 <0>        -0.1082
     20 C12        10.5428    6.1853   -1.2331 C.ar      1 <0>        -0.0920
     21 C13        10.5366    7.5667   -1.2210 C.ar      1 <0>        -0.1431
     22 C14        10.5502    8.2486   -0.0129 C.ar      1 <0>         0.1179
     23 C15        10.5702    7.5411    1.1802 C.ar      1 <0>        -0.1430
     24 C16        10.5712    6.1597    1.1628 C.ar      1 <0>        -0.0920
     25 O2         10.5445    9.6076    0.0017 O.3       1 <0>        -0.4985
     26 H1         -0.8931    1.9737    0.0252 H         1 <0>         0.1685
     27 H2          1.6734    2.7967    0.0008 H         1 <0>         0.1702
     28 H3         -0.8667   -0.6456    0.0069 H         1 <0>         0.2226
     29 H4          7.7217   -2.5654   -0.1039 H         1 <0>         0.4476
     30 H5          6.0421   -2.6021   -0.0878 H         1 <0>         0.4601
     31 H6          9.9800    1.5127   -0.0796 H         1 <0>         0.4298
     32 H7          8.6066    3.8287   -0.9319 H         1 <0>         0.0992
     33 H8          8.6234    3.8096    0.8478 H         1 <0>         0.0992
     34 H9         11.0945    3.6052    0.8223 H         1 <0>         0.0876
     35 H10        11.0777    3.6243   -0.9574 H         1 <0>         0.0877
     36 H11        10.5322    5.6540   -2.1733 H         1 <0>         0.1282
     37 H12        10.5214    8.1153   -2.1511 H         1 <0>         0.1332
     38 H13        10.5809    8.0697    2.1220 H         1 <0>         0.1332
     39 H14        10.5822    5.6084    2.0914 H         1 <0>         0.1282
     40 H15         9.6596    9.9970    0.0181 H         1 <0>         0.3968
     41 H16         8.8171   -0.5047   -0.0913 H         1 <0>         0.4591
@<TRIPOS>BOND
     1    1    5 2
     2    1    2 1
     3    1   26 1
     4    2    3 2
     5    2   27 1
     6    3    4 1
     7    3    6 1
     8    4    5 1
     9    5   28 1
    10    6   14 2
    11    6    7 1
    12    7    8 2
    13    8   13 1
    14    8    9 1
    15    9   10 2
    16   10   11 1
    17   10   16 1
    18   11   12 2
    19   11   41 1
    20   12   13 1
    21   12   15 1
    22   13   14 1
    23   15   29 1
    24   15   30 1
    25   16   17 1
    26   16   31 1
    27   17   18 1
    28   17   32 1
    29   17   33 1
    30   18   19 1
    31   18   34 1
    32   18   35 1
    33   19   24 ar
    34   19   20 ar
    35   20   21 ar
    36   20   36 1
    37   21   22 ar
    38   21   37 1
    39   22   23 ar
    40   22   25 1
    41   23   24 ar
    42   23   38 1
    43   24   39 1
    44   25   40 1
@<TRIPOS>MOLECULE
CHEMBL605895
   50    53     0     0     0
SMALL
USER_CHARGES

@<TRIPOS>ATOM
      1 C1          1.3050    1.3801    4.0958 C.ar      1 <0>        -0.1331
      2 C2          2.0483    0.4022    4.7310 C.ar      1 <0>        -0.0999
      3 C3          3.0318   -0.2778    4.0398 C.ar      1 <0>        -0.1204
      4 C4          3.2738    0.0213    2.7054 C.ar      1 <0>         0.1561
      5 C5          2.5256    1.0039    2.0704 C.ar      1 <0>        -0.1409
      6 C6          1.5435    1.6803    2.7672 C.ar      1 <0>        -0.0997
      7 N1          4.2697   -0.6655    2.0024 N.am      1 <0>        -0.6671
      8 C7          4.5068   -1.9656    2.2671 C.2       1 <0>         0.7303
      9 O1          3.8007   -2.5639    3.0551 O.2       1 <0>        -0.5450
     10 N2          5.5267   -2.6022    1.6580 N.am      1 <0>        -0.5864
     11 N3          6.3405   -1.9125    0.7498 N.2       1 <0>         0.1380
     12 N4          7.2523   -2.5447    0.0919 N.2       1 <0>        -0.1590
     13 C8          7.3309   -3.9088    0.1698 C.ar      1 <0>         0.4691
     14 N5          6.2057   -4.6192    0.1631 N.ar      1 <0>        -0.6094
     15 C9          6.2311   -5.9436    0.2367 C.ar      1 <0>         0.5263
     16 C10         7.4782   -6.5896    0.3228 C.ar      1 <0>        -0.0857
     17 C11         8.6407   -5.7985    0.3266 C.ar      1 <0>         0.3142
     18 N6          8.5260   -4.4787    0.2441 N.ar      1 <0>        -0.5073
     19 N7          9.6937   -6.6743    0.4168 N.pl3     1 <0>        -0.4563
     20 C12         9.1741   -7.9339    0.4646 C.2       1 <0>         0.2958
     21 N8          7.8747   -7.8815    0.4092 N.2       1 <0>        -0.4630
     22 C13        11.1149   -6.3206    0.4545 C.3       1 <0>         0.3111
     23 C14        11.6531   -6.1608   -0.9836 C.3       1 <0>         0.0762
     24 H1         11.7214   -5.1080   -1.2575 H         1 <0>         0.1018
     25 C15        13.0657   -6.7977   -0.8795 C.3       1 <0>         0.0482
     26 H2         13.7934   -6.0797   -0.5014 H         1 <0>         0.0948
     27 C16        12.8051   -7.9244    0.1518 C.3       1 <0>         0.0505
     28 H3         12.3816   -8.7989   -0.3422 H         1 <0>         0.0995
     29 O2         11.8605   -7.3707    1.0815 O.3       1 <0>        -0.3450
     30 C17        14.1036   -8.2979    0.8697 C.3       1 <0>         0.0778
     31 O3         13.8679   -9.4141    1.7303 O.3       1 <0>        -0.5632
     32 O4         13.4823   -7.3350   -2.1364 O.3       1 <0>        -0.5421
     33 O5         10.8365   -6.8741   -1.9144 O.3       1 <0>        -0.5364
     34 N9          5.0558   -6.6742    0.2296 N.pl3     1 <0>        -0.8075
     35 H4          0.5335    1.9073    4.6373 H         1 <0>         0.1243
     36 H5          1.8599    0.1703    5.7688 H         1 <0>         0.1264
     37 H6          3.6122   -1.0412    4.5365 H         1 <0>         0.1332
     38 H7          2.7116    1.2391    1.0329 H         1 <0>         0.1281
     39 H8          0.9610    2.4443    2.2739 H         1 <0>         0.1280
     40 H9          4.7896   -0.2059    1.3246 H         1 <0>         0.4194
     41 H10         5.6973   -3.5379    1.8485 H         1 <0>         0.4205
     42 H11         9.7550   -8.8414    0.5375 H         1 <0>         0.2222
     43 H12        11.2498   -5.3906    1.0068 H         1 <0>         0.1396
     44 H13        14.8632   -8.5606    0.1335 H         1 <0>         0.0647
     45 H14        14.4487   -7.4497    1.4610 H         1 <0>         0.0598
     46 H15        14.6498   -9.7061    2.2187 H         1 <0>         0.3865
     47 H16        14.3589   -7.7429   -2.1186 H         1 <0>         0.3913
     48 H17        11.1335   -6.8047   -2.8320 H         1 <0>         0.3959
     49 H18         4.2016   -6.2184    0.1703 H         1 <0>         0.4137
     50 H19         5.0862   -7.6422    0.2839 H         1 <0>         0.4242
@<TRIPOS>BOND
     1    1    6 ar
     2    1    2 ar
     3    1   35 1
     4    2    3 ar
     5    2   36 1
     6    3    4 ar
     7    3   37 1
     8    4    5 ar
     9    4    7 1
    10    5    6 ar
    11    5   38 1
    12    6   39 1
    13    7    8 am
    14    7   40 1
    15    8    9 2
    16    8   10 am
    17   10   11 1
    18   10   41 1
    19   11   12 2
    20   12   13 1
    21   13   18 ar
    22   13   14 ar
    23   14   15 ar
    24   15   16 ar
    25   15   34 1
    26   16   21 1
    27   16   17 ar
    28   17   18 ar
    29   17   19 1
    30   19   20 1
    31   19   22 1
    32   20   21 2
    33   20   42 1
    34   22   29 1
    35   22   23 1
    36   22   43 1
    37   23   24 1
    38   23   25 1
    39   23   33 1
    40   25   26 1
    41   25   27 1
    42   25   32 1
    43   27   28 1
    44   27   29 1
    45   27   30 1
    46   30   31 1
    47   30   44 1
    48   30   45 1
    49   31   46 1
    50   32   47 1
    51   33   48 1
    52   34   49 1
    53   34   50 1
@<TRIPOS>MOLECULE
CHEMBL373560
   57    62     0     0     0
SMALL
USER_CHARGES

@<TRIPOS>ATOM
      1 C1         -0.0162    1.3433    0.0094 C.2       1 <0>        -0.2205
      2 C2          1.3252    1.7744   -0.0011 C.2       1 <0>        -0.1214
      3 C3          2.0963    0.6547   -0.0144 C.2       1 <0>         0.0260
      4 O1          1.2798   -0.4167   -0.0124 O.3       1 <0>        -0.1581
      5 C4          0.0021   -0.0041    0.0020 C.2       1 <0>         0.0042
      6 C5          3.5735    0.6192   -0.0292 C.2       1 <0>         0.3352
      7 N1          4.3782    1.6975   -0.0257 N.2       1 <0>        -0.4722
      8 C6          5.6284    1.3133   -0.0438 C.2       1 <0>         0.4926
      9 N2          6.7827    2.0136   -0.0426 N.2       1 <0>        -0.5213
     10 C7          7.9149    1.3544   -0.2245 C.2       1 <0>         0.6597
     11 N3          7.9251    0.0030   -0.4737 N.pl3     1 <0>        -0.7072
     12 C8          6.8335   -0.7612   -0.0614 C.2       1 <0>         0.6287
     13 N4          5.6350   -0.0666   -0.0535 N.pl3     1 <0>        -0.3816
     14 N5          4.3125   -0.4776   -0.0421 N.2       1 <0>        -0.2382
     15 N6          6.9320   -2.0133    0.2840 N.2       1 <0>        -0.6454
     16 N7          9.1029    2.0335   -0.1638 N.pl3     1 <0>        -0.6029
     17 C9         10.3866    1.3423   -0.3661 C.3       1 <0>         0.0904
     18 C10        11.3005    1.6893    0.8113 C.3       1 <0>        -0.0215
     19 N8         11.4311    3.1501    0.9330 N.4       1 <0>        -0.3858
     20 C11        12.3915    3.4256    2.0122 C.3       1 <0>        -0.0005
     21 C12        12.6152    4.9311    2.1496 C.3       1 <0>        -0.1316
     22 H1         13.3336    5.1226    2.9467 H         1 <0>         0.1370
     23 C13        11.2787    5.5987    2.4911 C.3       1 <0>        -0.1395
     24 C14        10.2734    5.2712    1.3860 C.3       1 <0>        -0.1459
     25 C15        10.1305    3.7519    1.2449 C.3       1 <0>         0.0124
     26 H2          9.7485    3.3332    2.1760 H         1 <0>         0.1536
     27 C16         9.1400    3.4780    0.0994 C.3       1 <0>         0.1100
     28 C17        13.1504    5.4926    0.8309 C.3       1 <0>         0.0824
     29 N9         13.4764    6.9108    1.0005 N.pl3     1 <0>        -0.4170
     30 C18        12.6307    7.9682    0.8000 C.2       1 <0>         0.0144
     31 C19        13.3333    9.0854    1.0683 C.2       1 <0>         0.0220
     32 N10        14.5741    8.7200    1.4230 N.pl3     1 <0>        -0.4689
     33 C20        14.6657    7.4186    1.3895 C.cat     1 <0>         0.2988
     34 H3         -0.8931    1.9736    0.0252 H         1 <0>         0.1623
     35 H4          1.6735    2.7967    0.0011 H         1 <0>         0.1625
     36 H5         -0.8667   -0.6456    0.0069 H         1 <0>         0.2169
     37 H6          7.7947   -2.4563    0.2614 H         1 <0>         0.3694
     38 H7         10.2237    0.2651   -0.4012 H         1 <0>         0.1279
     39 H8         10.8427    1.6772   -1.2978 H         1 <0>         0.1133
     40 H9         10.8752    1.2862    1.7304 H         1 <0>         0.1431
     41 H10        12.2846    1.2505    0.6469 H         1 <0>         0.1562
     42 H11        12.0025    3.0313    2.9510 H         1 <0>         0.1488
     43 H12        13.3399    2.9391    1.7844 H         1 <0>         0.1455
     44 H13        10.9121    5.2172    3.4440 H         1 <0>         0.1051
     45 H14        11.4145    6.6783    2.5540 H         1 <0>         0.0967
     46 H15         9.3052    5.7042    1.6374 H         1 <0>         0.1325
     47 H16        10.6225    5.6913    0.4427 H         1 <0>         0.0874
     48 H17         9.4634    4.0037   -0.7990 H         1 <0>         0.1027
     49 H18         8.1461    3.8217    0.3858 H         1 <0>         0.1560
     50 H19        14.0476    4.9458    0.5406 H         1 <0>         0.1355
     51 H20        12.3921    5.3844    0.0554 H         1 <0>         0.1166
     52 H21        11.5985    7.9166    0.4864 H         1 <0>         0.2241
     53 H22        12.9625   10.0980    1.0084 H         1 <0>         0.2293
     54 H23        15.5473    6.8433    1.6305 H         1 <0>         0.2638
     55 H24         8.6760   -0.4109   -0.9272 H         1 <0>         0.4279
     56 H25        11.7789    3.5306    0.0656 H         1 <0>         0.4167
     57 H26        15.2894    9.3271    1.6692 H         1 <0>         0.4718
@<TRIPOS>BOND
     1    1    5 2
     2    1    2 1
     3    1   34 1
     4    2    3 2
     5    2   35 1
     6    3    4 1
     7    3    6 1
     8    4    5 1
     9    5   36 1
    10    6   14 2
    11    6    7 1
    12    7    8 2
    13    8   13 1
    14    8    9 1
    15    9   10 2
    16   10   11 1
    17   10   16 1
    18   11   12 1
    19   11   55 1
    20   12   13 1
    21   12   15 2
    22   13   14 1
    23   15   37 1
    24   16   27 1
    25   16   17 1
    26   17   18 1
    27   17   38 1
    28   17   39 1
    29   18   19 1
    30   18   40 1
    31   18   41 1
    32   19   25 1
    33   19   20 1
    34   19   56 1
    35   20   21 1
    36   20   42 1
    37   20   43 1
    38   21   22 1
    39   21   23 1
    40   21   28 1
    41   23   24 1
    42   23   44 1
    43   23   45 1
    44   24   25 1
    45   24   46 1
    46   24   47 1
    47   25   26 1
    48   25   27 1
    49   27   48 1
    50   27   49 1
    51   28   29 1
    52   28   50 1
    53   28   51 1
    54   29   33 1
    55   29   30 1
    56   30   31 2
    57   30   52 1
    58   31   32 1
    59   31   53 1
    60   32   33 2
    61   32   57 1
    62   33   54 1
@<TRIPOS>MOLECULE
CHEMBL187586
   48    52     0     0     0
SMALL
USER_CHARGES

@<TRIPOS>ATOM
      1 C1          0.0119    1.2912   -0.7369 C.2       1 <0>        -0.2216
      2 C2          1.3514    1.7257   -0.6913 C.2       1 <0>        -0.0891
      3 C3          2.1126    0.6242   -0.4553 C.2       1 <0>        -0.0056
      4 O1          1.2920   -0.4397   -0.3588 O.3       1 <0>        -0.1584
      5 C4          0.0215   -0.0402   -0.5285 C.2       1 <0>         0.0250
      6 C5          3.5845    0.5986   -0.3268 C.2       1 <0>         0.4161
      7 N1          4.3889    1.6652   -0.4191 N.2       1 <0>        -0.4671
      8 C6          5.6466    1.2891   -0.2561 C.2       1 <0>         0.5461
      9 N2          6.8125    1.9510   -0.2569 N.2       1 <0>        -0.5079
     10 C7          7.9464    1.2979   -0.0627 C.2       1 <0>         0.6557
     11 N3          7.9591   -0.0230    0.1366 N.pl3     1 <0>        -0.6001
     12 C8          6.8334   -0.7138    0.1452 C.cat     1 <0>         0.7689
     13 N4          5.6488   -0.0661   -0.0520 N.pl3     1 <0>        -0.4040
     14 N5          4.3122   -0.4781   -0.0974 N.2       1 <0>        -0.2958
     15 N6          6.8551   -2.0686    0.3499 N.pl3     1 <0>        -0.7469
     16 N7          9.1377    1.9935   -0.0665 N.pl3     1 <0>        -0.5449
     17 C9         10.4248    1.2868    0.0177 C.3       1 <0>         0.1048
     18 C10        11.3269    1.7814   -1.1180 C.3       1 <0>         0.0393
     19 N8         11.4181    3.2465   -1.0640 N.3       1 <0>        -0.5265
     20 C11        10.1065    3.8705   -1.2837 C.3       1 <0>         0.0271
     21 C12         9.1546    3.4612   -0.1610 C.3       1 <0>         0.1199
     22 C13        12.4077    3.7483   -2.0266 C.3       1 <0>         0.0878
     23 C14        12.6534    5.2140   -1.7767 C.ar      1 <0>        -0.0279
     24 C15        11.8881    6.1810   -2.4123 C.ar      1 <0>        -0.0839
     25 C16        12.1426    7.5167   -2.1575 C.ar      1 <0>         0.1251
     26 N9         13.0988    7.8740   -1.3228 N.ar      1 <0>        -0.4452
     27 C17        13.8458    6.9829   -0.7010 C.ar      1 <0>         0.1245
     28 C18        13.6464    5.6287   -0.9011 C.ar      1 <0>        -0.0617
     29 Cl1        14.6307    4.4633   -0.0725 Cl        1 <0>        -0.0284
     30 Cl2        10.6277    5.7209   -3.5138 Cl        1 <0>        -0.0370
     31 H1         -0.8583    1.9089   -0.9027 H         1 <0>         0.1685
     32 H2          1.7051    2.7380   -0.8196 H         1 <0>         0.1701
     33 H3         -0.8484   -0.6797   -0.5024 H         1 <0>         0.2224
     34 H4          7.6998   -2.5246    0.4894 H         1 <0>         0.4468
     35 H5          6.0257   -2.5716    0.3554 H         1 <0>         0.4602
     36 H6         10.8960    1.4974    0.9778 H         1 <0>         0.1194
     37 H7         10.2610    0.2141   -0.0855 H         1 <0>         0.0824
     38 H8         12.3219    1.3507   -1.0060 H         1 <0>         0.1121
     39 H9         10.9047    1.4783   -2.0761 H         1 <0>         0.0531
     40 H10        10.2164    4.9549   -1.2919 H         1 <0>         0.1078
     41 H11         9.7013    3.5384   -2.2396 H         1 <0>         0.0561
     42 H12         8.1513    3.8254   -0.3823 H         1 <0>         0.1241
     43 H13         9.5013    3.8848    0.7815 H         1 <0>         0.1059
     44 H14        13.3412    3.1981   -1.9082 H         1 <0>         0.1066
     45 H15        12.0309    3.6107   -3.0401 H         1 <0>         0.0677
     46 H16        11.5514    8.2757   -2.6482 H         1 <0>         0.1768
     47 H17        14.6199    7.3141   -0.0247 H         1 <0>         0.1773
     48 H18         8.8036   -0.4794    0.2761 H         1 <0>         0.4545
@<TRIPOS>BOND
     1    1    5 2
     2    1    2 1
     3    1   31 1
     4    2    3 2
     5    2   32 1
     6    3    4 1
     7    3    6 1
     8    4    5 1
     9    5   33 1
    10    6   14 2
    11    6    7 1
    12    7    8 2
    13    8   13 1
    14    8    9 1
    15    9   10 2
    16   10   11 1
    17   10   16 1
    18   11   12 2
    19   11   48 1
    20   12   13 1
    21   12   15 1
    22   13   14 1
    23   15   34 1
    24   15   35 1
    25   16   21 1
    26   16   17 1
    27   17   18 1
    28   17   36 1
    29   17   37 1
    30   18   19 1
    31   18   38 1
    32   18   39 1
    33   19   20 1
    34   19   22 1
    35   20   21 1
    36   20   40 1
    37   20   41 1
    38   21   42 1
    39   21   43 1
    40   22   23 1
    41   22   44 1
    42   22   45 1
    43   23   28 ar
    44   23   24 ar
    45   24   25 ar
    46   24   30 1
    47   25   26 ar
    48   25   46 1
    49   26   27 ar
    50   27   28 ar
    51   27   47 1
    52   28   29 1
@<TRIPOS>MOLECULE
CHEMBL467035
   40    43     0     0     0
SMALL
USER_CHARGES

@<TRIPOS>ATOM
      1 C1         -0.0162    1.3451    0.0094 C.2       1 <0>        -0.2248
      2 C2          1.3225    1.7763   -0.0010 C.2       1 <0>        -0.1231
      3 C3          2.0959    0.6543   -0.0144 C.2       1 <0>        -0.0074
      4 O1          1.2782   -0.4173   -0.0124 O.3       1 <0>        -0.1489
      5 C4          0.0021   -0.0041    0.0020 C.2       1 <0>         0.0010
      6 C5          3.5677    0.6188   -0.0291 C.ar      1 <0>         0.4082
      7 C6          4.2734   -0.4010    0.6510 C.ar      1 <0>        -0.1549
      8 C7          5.6790   -0.3802    0.5989 C.ar      1 <0>         0.3586
      9 N1          6.2899    0.5856   -0.0804 N.ar      1 <0>        -0.5808
     10 C8          5.5905    1.5202   -0.7032 C.ar      1 <0>         0.6207
     11 N2          4.2647    1.5429   -0.6876 N.ar      1 <0>        -0.5503
     12 N3          6.2669    2.5076   -1.3991 N.pl3     1 <0>        -0.8035
     13 N4          6.0998   -1.4584    1.3276 N.pl3     1 <0>        -0.3797
     14 N5          4.9441   -2.0995    1.7988 N.2       1 <0>         0.0018
     15 N6          3.9043   -1.4608    1.3883 N.2       1 <0>        -0.1704
     16 C9          7.4865   -1.8648    1.5687 C.3       1 <0>         0.1364
     17 C10         8.0018   -1.1900    2.8415 C.3       1 <0>        -0.1025
     18 C11         7.2134   -1.7057    4.0471 C.3       1 <0>        -0.1150
     19 C12         7.7287   -1.0310    5.3199 C.3       1 <0>        -0.1188
     20 C13         9.2125   -1.3553    5.5043 C.3       1 <0>        -0.1211
     21 C14        10.0009   -0.8396    4.2987 C.3       1 <0>        -0.1180
     22 C15         9.4856   -1.5144    3.0259 C.3       1 <0>        -0.1099
     23 H1         -0.8933    1.9750    0.0252 H         1 <0>         0.1584
     24 H2          1.6703    2.7988    0.0008 H         1 <0>         0.1592
     25 H3         -0.8670   -0.6452    0.0072 H         1 <0>         0.2132
     26 H4          7.2366    2.5058   -1.4240 H         1 <0>         0.4206
     27 H5          5.7711    3.2012   -1.8618 H         1 <0>         0.4219
     28 H6          7.5325   -2.9473    1.6872 H         1 <0>         0.1058
     29 H7          8.1052   -1.5653    0.7227 H         1 <0>         0.1032
     30 H8          7.8734   -0.1108    2.7581 H         1 <0>         0.0771
     31 H9          6.1563   -1.4747    3.9158 H         1 <0>         0.0624
     32 H10         7.3418   -2.7849    4.1305 H         1 <0>         0.0686
     33 H11         7.6003    0.0482    5.2365 H         1 <0>         0.0587
     34 H12         7.1670   -1.3984    6.1788 H         1 <0>         0.0640
     35 H13         9.5796   -0.8746    6.4111 H         1 <0>         0.0622
     36 H14         9.3409   -2.4345    5.5877 H         1 <0>         0.0635
     37 H15         9.8725    0.2396    4.2153 H         1 <0>         0.0616
     38 H16        11.0580   -1.0707    4.4300 H         1 <0>         0.0659
     39 H17         9.6140   -2.5935    3.1093 H         1 <0>         0.0688
     40 H18        10.0473   -1.1469    2.1670 H         1 <0>         0.0672
@<TRIPOS>BOND
     1    1    5 2
     2    1    2 1
     3    1   23 1
     4    2    3 2
     5    2   24 1
     6    3    4 1
     7    3    6 1
     8    4    5 1
     9    5   25 1
    10    6   11 ar
    11    6    7 ar
    12    7   15 1
    13    7    8 ar
    14    8    9 ar
    15    8   13 1
    16    9   10 ar
    17   10   11 ar
    18   10   12 1
    19   12   26 1
    20   12   27 1
    21   13   14 1
    22   13   16 1
    23   14   15 2
    24   16   17 1
    25   16   28 1
    26   16   29 1
    27   17   22 1
    28   17   18 1
    29   17   30 1
    30   18   19 1
    31   18   31 1
    32   18   32 1
    33   19   20 1
    34   19   33 1
    35   19   34 1
    36   20   21 1
    37   20   35 1
    38   20   36 1
    39   21   22 1
    40   21   37 1
    41   21   38 1
    42   22   39 1
    43   22   40 1
@<TRIPOS>MOLECULE
CHEMBL1098458
   49    53     0     0     0
SMALL
USER_CHARGES

@<TRIPOS>ATOM
      1 C1         -0.0167    1.3793    0.0096 C.ar      1 <0>        -0.0938
      2 C2          1.1685    2.0928    0.0021 C.ar      1 <0>        -0.1348
      3 C3          2.3774    1.4278   -0.0129 C.ar      1 <0>        -0.0669
      4 C4          2.4029    0.0333   -0.0206 C.ar      1 <0>        -0.0796
      5 C5          1.2046   -0.6805   -0.0130 C.ar      1 <0>        -0.0585
      6 C6          0.0021   -0.0041    0.0020 C.ar      1 <0>        -0.1275
      7 C7          3.6972   -0.6867   -0.0373 C.ar      1 <0>         0.3373
      8 C8          3.8485   -1.9052    0.6418 C.ar      1 <0>        -0.3404
      9 C9          5.0990   -2.5520    0.5965 C.ar      1 <0>         0.3023
     10 N1          6.0850   -1.9873   -0.0846 N.ar      1 <0>        -0.5621
     11 C10         5.9021   -0.8317   -0.7150 C.ar      1 <0>         0.5998
     12 N2          4.7422   -0.1939   -0.7024 N.ar      1 <0>        -0.5696
     13 N3          6.9569   -0.2801   -1.4120 N.pl3     1 <0>        -0.8061
     14 C11         5.0073   -3.8086    1.3828 C.ar      1 <0>         0.0144
     15 C12         5.9358   -4.7988    1.6558 C.ar      1 <0>        -0.1428
     16 C13         5.5750   -5.8959    2.4403 C.ar      1 <0>         0.2449
     17 C14         4.2862   -5.9985    2.9488 C.ar      1 <0>        -0.1939
     18 C15         3.3534   -5.0149    2.6806 C.ar      1 <0>         0.0055
     19 C16         3.7034   -3.9174    1.9004 C.ar      1 <0>        -0.2121
     20 C17         2.9375   -2.7308    1.4534 C.2       1 <0>         0.4681
     21 O1          1.7751   -2.4843    1.7089 O.2       1 <0>        -0.4243
     22 N4          6.5081   -6.8890    2.7129 N.pl3     1 <0>        -0.7354
     23 C18         6.1322   -8.0414    3.5358 C.3       1 <0>         0.1260
     24 C19         7.3334   -8.9777    3.6812 C.3       1 <0>        -0.0938
     25 C20         6.9468  -10.1631    4.5276 C.ar      1 <0>        -0.0405
     26 C21         7.0991  -10.1313    5.9054 C.ar      1 <0>        -0.1683
     27 C22         6.7336  -11.2374    6.6490 C.ar      1 <0>         0.1024
     28 N5          6.2459  -12.3132    6.0628 N.ar      1 <0>        -0.4856
     29 C23         6.0872  -12.3788    4.7553 C.ar      1 <0>         0.1024
     30 C24         6.4249  -11.3093    3.9477 C.ar      1 <0>        -0.1683
     31 H1         -0.9604    1.9042    0.0260 H         1 <0>         0.1259
     32 H2          1.1475    3.1726    0.0077 H         1 <0>         0.1275
     33 H3          3.3020    1.9859   -0.0191 H         1 <0>         0.1287
     34 H4          1.2180   -1.7604   -0.0193 H         1 <0>         0.1361
     35 H5         -0.9264   -0.5557    0.0082 H         1 <0>         0.1285
     36 H6          7.8133   -0.7350   -1.4359 H         1 <0>         0.4189
     37 H7          6.8423    0.5627   -1.8783 H         1 <0>         0.4203
     38 H8          6.9385   -4.7227    1.2620 H         1 <0>         0.1370
     39 H9          4.0125   -6.8494    3.5551 H         1 <0>         0.1355
     40 H10         2.3523   -5.0978    3.0772 H         1 <0>         0.1391
     41 H11         7.4083   -6.8192    2.3584 H         1 <0>         0.4053
     42 H12         5.8184   -7.6972    4.5212 H         1 <0>         0.0694
     43 H13         5.3106   -8.5758    3.0588 H         1 <0>         0.0694
     44 H14         7.6473   -9.3219    2.6958 H         1 <0>         0.0864
     45 H15         8.1551   -8.4433    4.1581 H         1 <0>         0.0864
     46 H16         7.4986   -9.2534    6.3913 H         1 <0>         0.1359
     47 H17         6.8491  -11.2206    7.7227 H         1 <0>         0.1575
     48 H18         5.6849  -13.2771    4.3108 H         1 <0>         0.1575
     49 H19         6.2880  -11.3672    2.8780 H         1 <0>         0.1359
@<TRIPOS>BOND
     1    1    6 ar
     2    1    2 ar
     3    1   31 1
     4    2    3 ar
     5    2   32 1
     6    3    4 ar
     7    3   33 1
     8    4    5 ar
     9    4    7 1
    10    5    6 ar
    11    5   34 1
    12    6   35 1
    13    7   12 ar
    14    7    8 ar
    15    8   20 1
    16    8    9 ar
    17    9   10 ar
    18    9   14 1
    19   10   11 ar
    20   11   12 ar
    21   11   13 1
    22   13   36 1
    23   13   37 1
    24   14   19 ar
    25   14   15 ar
    26   15   16 ar
    27   15   38 1
    28   16   17 ar
    29   16   22 1
    30   17   18 ar
    31   17   39 1
    32   18   19 ar
    33   18   40 1
    34   19   20 1
    35   20   21 2
    36   22   23 1
    37   22   41 1
    38   23   24 1
    39   23   42 1
    40   23   43 1
    41   24   25 1
    42   24   44 1
    43   24   45 1
    44   25   30 ar
    45   25   26 ar
    46   26   27 ar
    47   26   46 1
    48   27   28 ar
    49   27   47 1
    50   28   29 ar
    51   29   30 ar
    52   29   48 1
    53   30   49 1
@<TRIPOS>MOLECULE
CHEMBL255647
   46    49     0     0     0
SMALL
USER_CHARGES

@<TRIPOS>ATOM
      1 C1         -0.0175    1.5029    0.0166 C.3       1 <0>        -0.0786
      2 C2          0.0028   -0.0040    0.0070 C.2       1 <0>         0.0194
      3 C3         -1.0824   -0.8047    0.0059 C.2       1 <0>        -0.2243
      4 C4         -0.6155   -2.1325   -0.0051 C.2       1 <0>        -0.1129
      5 C5          0.7437   -2.0698   -0.0102 C.2       1 <0>         0.0097
      6 O1          1.1032   -0.7711   -0.0078 O.3       1 <0>        -0.1512
      7 C6          1.6640   -3.2234   -0.0215 C.ar      1 <0>         0.4425
      8 N1          2.9730   -3.0056   -0.0200 N.ar      1 <0>        -0.5159
      9 C7          3.8329   -4.0240   -0.0299 C.ar      1 <0>         0.2837
     10 C8          3.3376   -5.3300   -0.0420 C.ar      1 <0>        -0.2206
     11 C9          1.9566   -5.5156   -0.0432 C.ar      1 <0>         0.4230
     12 N2          1.1603   -4.4527   -0.0274 N.ar      1 <0>        -0.4918
     13 N3          1.4187   -6.7984   -0.0550 N.am      1 <0>        -0.6547
     14 C10         0.0859   -6.9712    0.0470 C.2       1 <0>         0.5062
     15 O2         -0.6514   -6.0084    0.0563 O.2       1 <0>        -0.4588
     16 C11        -0.4881   -8.3608    0.1494 C.3       1 <0>        -0.1326
     17 C12        -2.0122   -8.2766    0.2535 C.3       1 <0>        -0.0654
     18 C13        -2.5862   -9.6663    0.3559 C.ar      1 <0>        -0.1197
     19 C14        -3.0245  -10.3188   -0.7810 C.ar      1 <0>        -0.0869
     20 C15        -3.5511  -11.5934   -0.6873 C.ar      1 <0>        -0.1275
     21 C16        -3.6399  -12.2171    0.5434 C.ar      1 <0>        -0.0923
     22 C17        -3.2020  -11.5670    1.6813 C.ar      1 <0>        -0.1522
     23 C18        -2.6694  -10.2920    1.5880 C.ar      1 <0>         0.1007
     24 F1         -2.2366   -9.6572    2.6993 F         1 <0>        -0.1367
     25 C19         5.2902   -3.7748   -0.0287 C.2       1 <0>         0.1212
     26 N4          6.2921   -4.6428   -0.0432 N.2       1 <0>        -0.4745
     27 C20         7.5397   -4.2436   -0.0394 C.2       1 <0>         0.0212
     28 C21         7.8256   -2.9122   -0.0202 C.2       1 <0>        -0.1940
     29 S1          6.1757   -2.2215   -0.0151 S.3       1 <0>         0.0957
     30 H1          1.0052    1.8800    0.0101 H         1 <0>         0.0792
     31 H2         -0.5439    1.8648   -0.8666 H         1 <0>         0.0906
     32 H3         -0.5284    1.8536    0.9133 H         1 <0>         0.0907
     33 H4         -2.1146   -0.4872    0.0127 H         1 <0>         0.1566
     34 H5         -1.2194   -3.0279   -0.0084 H         1 <0>         0.1660
     35 H6          4.0091   -6.1758   -0.0506 H         1 <0>         0.1642
     36 H7          2.0027   -7.5685   -0.1367 H         1 <0>         0.4255
     37 H8         -0.2155   -8.9328   -0.7375 H         1 <0>         0.1030
     38 H9         -0.0900   -8.8539    1.0362 H         1 <0>         0.1013
     39 H10        -2.2848   -7.7047    1.1404 H         1 <0>         0.0866
     40 H11        -2.4103   -7.7836   -0.6333 H         1 <0>         0.0892
     41 H12        -2.9559   -9.8324   -1.7428 H         1 <0>         0.1336
     42 H13        -3.8936  -12.1023   -1.5762 H         1 <0>         0.1308
     43 H14        -4.0521  -13.2128    0.6155 H         1 <0>         0.1331
     44 H15        -3.2718  -12.0542    2.6426 H         1 <0>         0.1359
     45 H16         8.3400   -4.9688   -0.0511 H         1 <0>         0.1757
     46 H17         8.7828   -2.4121   -0.0138 H         1 <0>         0.2052
@<TRIPOS>BOND
     1    1    2 1
     2    1   30 1
     3    1   31 1
     4    1   32 1
     5    2    6 1
     6    2    3 2
     7    3    4 1
     8    3   33 1
     9    4    5 2
    10    4   34 1
    11    5    6 1
    12    5    7 1
    13    7   12 ar
    14    7    8 ar
    15    8    9 ar
    16    9   10 ar
    17    9   25 1
    18   10   11 ar
    19   10   35 1
    20   11   12 ar
    21   11   13 1
    22   13   14 am
    23   13   36 1
    24   14   15 2
    25   14   16 1
    26   16   17 1
    27   16   37 1
    28   16   38 1
    29   17   18 1
    30   17   39 1
    31   17   40 1
    32   18   23 ar
    33   18   19 ar
    34   19   20 ar
    35   19   41 1
    36   20   21 ar
    37   20   42 1
    38   21   22 ar
    39   21   43 1
    40   22   23 ar
    41   22   44 1
    42   23   24 1
    43   25   29 1
    44   25   26 2
    45   26   27 1
    46   27   28 2
    47   27   45 1
    48   28   29 1
    49   28   46 1
@<TRIPOS>MOLECULE
CHEMBL77279
   59    61     0     0     0
SMALL
USER_CHARGES

@<TRIPOS>ATOM
      1 C1         -0.0187    1.5258    0.0104 C.3       1 <0>        -0.1472
      2 C2          0.0021   -0.0041    0.0020 C.3       1 <0>        -0.1386
      3 C3         -1.4333   -0.5336    0.0129 C.3       1 <0>         0.1191
      4 N1         -1.4134   -1.9985    0.0048 N.am      1 <0>        -0.5088
      5 C4         -1.4098   -2.6843   -1.2005 C.2       1 <0>         0.3298
      6 C5         -1.3908   -4.0767   -1.1791 C.2       1 <0>        -0.1452
      7 C6         -1.3763   -4.7443    0.0625 C.2       1 <0>         0.5927
      8 O1         -1.3591   -5.9617    0.1069 O.2       1 <0>        -0.5108
      9 N2         -1.3811   -4.0204    1.2008 N.am      1 <0>        -0.5483
     10 C7         -1.3932   -2.6768    1.1674 C.2       1 <0>         0.7075
     11 O2         -1.3913   -2.0582    2.2143 O.2       1 <0>        -0.5279
     12 C8         -1.3666   -4.7094    2.4935 C.3       1 <0>         0.1135
     13 C9          0.0808   -4.9302    2.9376 C.3       1 <0>        -0.1378
     14 C10         0.0960   -5.6498    4.2877 C.3       1 <0>        -0.1474
     15 N3         -1.3914   -4.4903   -2.4986 N.pl3     1 <0>        -0.5149
     16 C11        -1.4103   -3.3600   -3.2649 C.2       1 <0>         0.3314
     17 N4         -1.4210   -2.2994   -2.4744 N.2       1 <0>        -0.4857
     18 C12        -1.4177   -3.3273   -4.7286 C.2       1 <0>        -0.1127
     19 C13        -1.4368   -2.1448   -5.3765 C.2       1 <0>        -0.0237
     20 C14        -1.4442   -2.1119   -6.8472 C.ar      1 <0>         0.0001
     21 C15        -1.4372   -3.3064   -7.5751 C.ar      1 <0>        -0.2188
     22 C16        -1.4447   -3.2717   -8.9571 C.ar      1 <0>         0.1493
     23 C17        -1.4591   -2.0499   -9.6243 C.ar      1 <0>         0.0403
     24 C18        -1.4660   -0.8591   -8.9031 C.ar      1 <0>         0.1493
     25 C19        -1.4640   -0.8862   -7.5209 C.ar      1 <0>        -0.2075
     26 O3         -1.4801    0.3321   -9.5590 O.3       1 <0>        -0.3008
     27 C20        -1.4866    1.5145   -8.7566 C.3       1 <0>         0.0224
     28 O4         -1.4659   -2.0196  -10.9837 O.3       1 <0>        -0.3126
     29 C21        -2.7424   -2.0167  -11.6261 C.3       1 <0>         0.0354
     30 O5         -1.4375   -4.4325   -9.6656 O.3       1 <0>        -0.3004
     31 C22        -1.4222   -5.6495   -8.9169 C.3       1 <0>         0.0226
     32 H1          1.0039    1.9031    0.0027 H         1 <0>         0.0609
     33 H2         -0.5459    1.8868   -0.8726 H         1 <0>         0.0586
     34 H3         -0.5289    1.8773    0.9072 H         1 <0>         0.0591
     35 H4          0.5123   -0.3556   -0.8948 H         1 <0>         0.0679
     36 H5          0.5293   -0.3651    0.8851 H         1 <0>         0.0681
     37 H6         -1.9435   -0.1821    0.9097 H         1 <0>         0.1008
     38 H7         -1.9605   -0.1726   -0.8702 H         1 <0>         0.0986
     39 H8         -1.8854   -4.1018    3.2350 H         1 <0>         0.1036
     40 H9         -1.8681   -5.6725    2.3976 H         1 <0>         0.1018
     41 H10         0.5997   -5.5378    2.1961 H         1 <0>         0.0671
     42 H11         0.5823   -3.9672    3.0335 H         1 <0>         0.0693
     43 H12         1.1272   -5.8071    4.6040 H         1 <0>         0.0616
     44 H13        -0.4228   -5.0422    5.0291 H         1 <0>         0.0600
     45 H14        -0.4055   -6.6128    4.1918 H         1 <0>         0.0590
     46 H15        -1.4078   -4.2502   -5.2894 H         1 <0>         0.1432
     47 H16        -1.4467   -1.2219   -4.8157 H         1 <0>         0.1450
     48 H17        -1.4257   -4.2546   -7.0582 H         1 <0>         0.1391
     49 H18        -1.4736    0.0379   -6.9621 H         1 <0>         0.1426
     50 H19        -1.4978    2.3922   -9.4029 H         1 <0>         0.1050
     51 H20        -2.3734    1.5187   -8.1228 H         1 <0>         0.0590
     52 H21        -0.5935    1.5346   -8.1320 H         1 <0>         0.0602
     53 H22        -3.2898   -2.9181  -11.3506 H         1 <0>         0.0452
     54 H23        -3.3059   -1.1386  -11.3107 H         1 <0>         0.0456
     55 H24        -2.6050   -1.9913  -12.7071 H         1 <0>         0.0944
     56 H25        -2.3086   -5.6980   -8.2843 H         1 <0>         0.0576
     57 H26        -1.4178   -6.4975   -9.6018 H         1 <0>         0.1054
     58 H27        -0.5287   -5.6814   -8.2935 H         1 <0>         0.0588
     59 H28        -1.3802   -5.4061   -2.8181 H         1 <0>         0.4380
@<TRIPOS>BOND
     1    1    2 1
     2    1   32 1
     3    1   33 1
     4    1   34 1
     5    2    3 1
     6    2   35 1
     7    2   36 1
     8    3    4 1
     9    3   37 1
    10    3   38 1
    11    4   10 am
    12    4    5 1
    13    5   17 1
    14    5    6 2
    15    6    7 1
    16    6   15 1
    17    7    8 2
    18    7    9 am
    19    9   10 am
    20    9   12 1
    21   10   11 2
    22   12   13 1
    23   12   39 1
    24   12   40 1
    25   13   14 1
    26   13   41 1
    27   13   42 1
    28   14   43 1
    29   14   44 1
    30   14   45 1
    31   15   16 1
    32   15   59 1
    33   16   17 2
    34   16   18 1
    35   18   19 2
    36   18   46 1
    37   19   20 1
    38   19   47 1
    39   20   25 ar
    40   20   21 ar
    41   21   22 ar
    42   21   48 1
    43   22   23 ar
    44   22   30 1
    45   23   24 ar
    46   23   28 1
    47   24   25 ar
    48   24   26 1
    49   25   49 1
    50   26   27 1
    51   27   50 1
    52   27   51 1
    53   27   52 1
    54   28   29 1
    55   29   53 1
    56   29   54 1
    57   29   55 1
    58   30   31 1
    59   31   56 1
    60   31   57 1
    61   31   58 1
@<TRIPOS>MOLECULE
CHEMBL179644
   42    46     0     0     0
SMALL
USER_CHARGES

@<TRIPOS>ATOM
      1 C1         -0.0167    1.3790    0.0096 C.ar      1 <0>        -0.1176
      2 C2          1.1687    2.0918    0.0021 C.ar      1 <0>        -0.1174
      3 C3          2.3774    1.4257   -0.0135 C.ar      1 <0>        -0.1103
      4 C4          2.4021    0.0327   -0.0212 C.ar      1 <0>        -0.0473
      5 C5          1.2051   -0.6804   -0.0131 C.ar      1 <0>        -0.1095
      6 C6          0.0021   -0.0041    0.0020 C.ar      1 <0>        -0.1171
      7 C7          3.6988   -0.6890   -0.0385 C.ar      1 <0>        -0.0521
      8 C8          4.8960    0.0259   -0.0412 C.ar      1 <0>        -0.0895
      9 C9          6.1036   -0.6439   -0.0573 C.ar      1 <0>        -0.1184
     10 C10         6.1335   -2.0245   -0.0712 C.ar      1 <0>        -0.0856
     11 C11         4.9424   -2.7503   -0.0691 C.ar      1 <0>        -0.0547
     12 C12         3.7220   -2.0797   -0.0462 C.ar      1 <0>        -0.0612
     13 C13         4.9755   -4.2320   -0.0850 C.2       1 <0>         0.2530
     14 C14         6.1892   -4.8952   -0.0963 C.2       1 <0>        -0.2170
     15 C15         6.1839   -6.3018   -0.1108 C.2       1 <0>         0.3539
     16 N1          7.1380   -7.2193   -0.1238 N.2       1 <0>        -0.5234
     17 C16         6.5879   -8.4376   -0.1344 C.2       1 <0>         0.3543
     18 N2          5.2717   -8.3240   -0.1285 N.2       1 <0>        -0.3210
     19 N3          4.9775   -6.9546   -0.1132 N.pl3     1 <0>        -0.3620
     20 C17         3.8176   -6.2408   -0.1013 C.2       1 <0>         0.6550
     21 N4          3.8278   -4.9276   -0.0829 N.2       1 <0>        -0.5507
     22 N5          2.6144   -6.9070   -0.1038 N.pl3     1 <0>        -0.8070
     23 C18         7.3354   -9.7125   -0.1510 C.2       1 <0>         0.0360
     24 C19         8.6884   -9.8440   -0.1522 C.2       1 <0>        -0.1264
     25 C20         8.9618  -11.2261   -0.1705 C.2       1 <0>        -0.2189
     26 C21         7.7745  -11.8633   -0.1795 C.2       1 <0>        -0.0074
     27 O1          6.7942  -10.9460   -0.1619 O.3       1 <0>        -0.1607
     28 H1         -0.9602    1.9042    0.0260 H         1 <0>         0.1233
     29 H2          1.1483    3.1716    0.0081 H         1 <0>         0.1250
     30 H3          3.3023    1.9833   -0.0200 H         1 <0>         0.1259
     31 H4          1.2187   -1.7603   -0.0194 H         1 <0>         0.1266
     32 H5         -0.9264   -0.5558    0.0083 H         1 <0>         0.1247
     33 H6          4.8788    1.1057   -0.0311 H         1 <0>         0.1303
     34 H7          7.0282   -0.0858   -0.0594 H         1 <0>         0.1339
     35 H8          7.0807   -2.5431   -0.0842 H         1 <0>         0.1344
     36 H9          2.7971   -2.6374   -0.0393 H         1 <0>         0.1400
     37 H10         7.1192   -4.3461   -0.0943 H         1 <0>         0.1679
     38 H11         2.5970   -7.8768   -0.1141 H         1 <0>         0.4247
     39 H12         1.7832   -6.4071   -0.0954 H         1 <0>         0.4296
     40 H13         9.4135   -9.0438   -0.1417 H         1 <0>         0.1632
     41 H14         9.9383  -11.6874   -0.1765 H         1 <0>         0.1598
     42 H15         7.6346  -12.9341   -0.1942 H         1 <0>         0.2135
@<TRIPOS>BOND
     1    1    6 ar
     2    1    2 ar
     3    1   28 1
     4    2    3 ar
     5    2   29 1
     6    3    4 ar
     7    3   30 1
     8    4    5 ar
     9    4    7 1
    10    5    6 ar
    11    5   31 1
    12    6   32 1
    13    7   12 ar
    14    7    8 ar
    15    8    9 ar
    16    8   33 1
    17    9   10 ar
    18    9   34 1
    19   10   11 ar
    20   10   35 1
    21   11   12 ar
    22   11   13 1
    23   12   36 1
    24   13   21 1
    25   13   14 2
    26   14   15 1
    27   14   37 1
    28   15   19 1
    29   15   16 2
    30   16   17 1
    31   17   18 2
    32   17   23 1
    33   18   19 1
    34   19   20 1
    35   20   21 2
    36   20   22 1
    37   22   38 1
    38   22   39 1
    39   23   27 1
    40   23   24 2
    41   24   25 1
    42   24   40 1
    43   25   26 2
    44   25   41 1
    45   26   27 1
    46   26   42 1
@<TRIPOS>MOLECULE
CHEMBL1087462
   48    52     0     0     0
SMALL
USER_CHARGES

@<TRIPOS>ATOM
      1 C1          1.0372    2.2649   -0.9068 C.ar      1 <0>        -0.0940
      2 C2          2.3150    2.7951   -0.9003 C.ar      1 <0>        -0.1343
      3 C3          3.4099    1.9627   -0.7903 C.ar      1 <0>        -0.0668
      4 C4          3.2264    0.5840   -0.6856 C.ar      1 <0>        -0.0794
      5 C5          1.9356    0.0554   -0.6929 C.ar      1 <0>        -0.0600
      6 C6          0.8487    0.8982   -0.8033 C.ar      1 <0>        -0.1273
      7 C7          4.3974   -0.3153   -0.5678 C.ar      1 <0>         0.3400
      8 C8          4.3321   -1.4789    0.2139 C.ar      1 <0>        -0.3504
      9 C9          5.4726   -2.3026    0.2949 C.ar      1 <0>         0.3158
     10 N1          6.5628   -1.9490   -0.3695 N.ar      1 <0>        -0.5445
     11 C10         6.5847   -0.8388   -1.1000 C.ar      1 <0>         0.6003
     12 N2          5.5347   -0.0397   -1.2064 N.ar      1 <0>        -0.5720
     13 N3          7.7416   -0.5099   -1.7749 N.pl3     1 <0>        -0.8058
     14 C11         5.1578   -3.4587    1.1720 C.ar      1 <0>        -0.0152
     15 C12         5.9151   -4.5481    1.5791 C.ar      1 <0>        -0.0335
     16 C13         5.3627   -5.5022    2.4200 C.ar      1 <0>        -0.0918
     17 C14         4.0593   -5.3771    2.8582 C.ar      1 <0>        -0.1034
     18 C15         3.2901   -4.2949    2.4600 C.ar      1 <0>        -0.0503
     19 C16         3.8317   -3.3327    1.6186 C.ar      1 <0>        -0.1478
     20 C17         3.2711   -2.0886    1.0330 C.2       1 <0>         0.4638
     21 O1          2.1483   -1.6552    1.1987 O.2       1 <0>        -0.4148
     22 C18         7.3386   -4.6945    1.1063 C.3       1 <0>         0.0944
     23 N4          7.3463   -5.1251   -0.2981 N.3       1 <0>        -0.5208
     24 C19         6.9260   -6.5285   -0.4211 C.3       1 <0>         0.0148
     25 C20         6.8909   -6.9172   -1.9015 C.3       1 <0>         0.0648
     26 O2          8.1775   -6.6845   -2.4810 O.3       1 <0>        -0.3852
     27 C21         8.6178   -5.3276   -2.3795 C.3       1 <0>         0.0647
     28 C22         8.6704   -4.9228   -0.9039 C.3       1 <0>         0.0251
     29 H1          0.1832    2.9209   -0.9886 H         1 <0>         0.1260
     30 H2          2.4559    3.8628   -0.9817 H         1 <0>         0.1277
     31 H3          4.4070    2.3777   -0.7856 H         1 <0>         0.1288
     32 H4          1.7872   -1.0113   -0.6125 H         1 <0>         0.1345
     33 H5         -0.1512    0.4902   -0.8087 H         1 <0>         0.1284
     34 H6          8.5203   -1.0848   -1.7114 H         1 <0>         0.4175
     35 H7          7.7766    0.2964   -2.3130 H         1 <0>         0.4197
     36 H8          5.9556   -6.3485    2.7341 H         1 <0>         0.1358
     37 H9          3.6376   -6.1252    3.5130 H         1 <0>         0.1405
     38 H10         2.2706   -4.2004    2.8039 H         1 <0>         0.1402
     39 H11         7.8513   -3.7368    1.1955 H         1 <0>         0.0955
     40 H12         7.8496   -5.4385    1.7174 H         1 <0>         0.0487
     41 H13         7.6338   -7.1680    0.1063 H         1 <0>         0.0442
     42 H14         5.9327   -6.6502    0.0108 H         1 <0>         0.0849
     43 H15         6.6352   -7.9727   -1.9948 H         1 <0>         0.0978
     44 H16         6.1444   -6.3142   -2.4185 H         1 <0>         0.0576
     45 H17         9.6111   -5.2334   -2.8184 H         1 <0>         0.0972
     46 H18         7.9216   -4.6783   -2.9104 H         1 <0>         0.0577
     47 H19         8.9504   -3.8724   -0.8244 H         1 <0>         0.0897
     48 H20         9.4061   -5.5366   -0.3841 H         1 <0>         0.0414
@<TRIPOS>BOND
     1    1    6 ar
     2    1    2 ar
     3    1   29 1
     4    2    3 ar
     5    2   30 1
     6    3    4 ar
     7    3   31 1
     8    4    5 ar
     9    4    7 1
    10    5    6 ar
    11    5   32 1
    12    6   33 1
    13    7   12 ar
    14    7    8 ar
    15    8   20 1
    16    8    9 ar
    17    9   10 ar
    18    9   14 1
    19   10   11 ar
    20   11   12 ar
    21   11   13 1
    22   13   34 1
    23   13   35 1
    24   14   19 ar
    25   14   15 ar
    26   15   16 ar
    27   15   22 1
    28   16   17 ar
    29   16   36 1
    30   17   18 ar
    31   17   37 1
    32   18   19 ar
    33   18   38 1
    34   19   20 1
    35   20   21 2
    36   22   23 1
    37   22   39 1
    38   22   40 1
    39   23   28 1
    40   23   24 1
    41   24   25 1
    42   24   41 1
    43   24   42 1
    44   25   26 1
    45   25   43 1
    46   25   44 1
    47   26   27 1
    48   27   28 1
    49   27   45 1
    50   27   46 1
    51   28   47 1
    52   28   48 1
@<TRIPOS>MOLECULE
CHEMBL321218
   63    66     0     0     0
SMALL
USER_CHARGES

@<TRIPOS>ATOM
      1 C1         -0.0187    1.5258    0.0104 C.3       1 <0>        -0.1478
      2 C2          0.0021   -0.0041    0.0020 C.3       1 <0>        -0.1370
      3 C3         -1.4333   -0.5336    0.0129 C.3       1 <0>         0.1132
      4 N1         -1.4134   -1.9985    0.0048 N.am      1 <0>        -0.5481
      5 C4         -1.4101   -2.6566   -1.1731 C.2       1 <0>         0.5934
      6 O1         -1.4231   -2.0399   -2.2234 O.2       1 <0>        -0.5100
      7 C5         -1.3909   -4.0680   -1.1740 C.2       1 <0>        -0.1528
      8 C6         -1.3760   -4.7455    0.0387 C.2       1 <0>         0.3226
      9 N2         -1.3595   -6.0519   -0.2379 N.2       1 <0>        -0.4906
     10 H1         -1.3884   -4.8858   -3.1159 H         1 <0>         0.4352
     11 C7         -1.3633   -6.2307   -1.5343 C.2       1 <0>         0.3088
     12 N3         -1.3824   -5.0365   -2.1577 N.pl3     1 <0>        -0.5124
     13 C8         -1.3476   -7.5699   -2.2252 C.3       1 <0>        -0.0170
     14 C9         -0.5833   -7.4663   -3.5612 C.3       1 <0>        -0.1244
     15 C10        -1.3699   -8.3925   -4.5217 C.3       1 <0>        -0.1245
     16 C11        -2.8415   -8.1438   -4.1074 C.3       1 <0>        -0.1289
     17 C12        -2.7834   -8.0007   -2.5725 C.3       1 <0>        -0.1171
     18 N4         -1.3803   -4.0123    1.2144 N.am      1 <0>        -0.5074
     19 C13        -1.3933   -2.6667    1.1710 C.2       1 <0>         0.7078
     20 O2         -1.3920   -2.0401    2.2131 O.2       1 <0>        -0.5275
     21 C14        -1.3653   -4.7023    2.5066 C.3       1 <0>         0.1246
     22 C15         0.0823   -4.9234    2.9499 C.3       1 <0>        -0.1486
     23 C16         0.0980   -5.6439    4.2995 C.3       1 <0>         0.1240
     24 N5          1.4841   -5.8556    4.7240 N.am      1 <0>        -0.7215
     25 C17         1.7439   -6.4764    5.8917 C.2       1 <0>         0.5539
     26 O3          0.8282   -6.8607    6.5927 O.2       1 <0>        -0.5193
     27 C18         3.1428   -6.6900    6.3201 C.ar      1 <0>        -0.0732
     28 C19         4.1965   -6.2449    5.5203 C.ar      1 <0>        -0.1014
     29 C20         5.4995   -6.4469    5.9260 C.ar      1 <0>        -0.0416
     30 C21         5.7628   -7.0897    7.1226 C.ar      1 <0>        -0.6624
     31 C22         4.7229   -7.5338    7.9199 C.ar      1 <0>        -0.0140
     32 C23         3.4153   -7.3326    7.5288 C.ar      1 <0>        -0.0725
     33 S1          7.4299   -7.3442    7.6332 S.o2      1 <0>         2.6700
     34 O4          7.7990   -6.2047    8.3978 O.2       1 <0>        -0.9160
     35 O5          7.4984   -8.6651    8.1528 O.2       1 <0>        -0.9183
     36 F1          8.3423   -7.3236    6.3069 F         1 <0>        -0.4670
     37 H2          1.0039    1.9031    0.0027 H         1 <0>         0.0617
     38 H3         -0.5459    1.8868   -0.8726 H         1 <0>         0.0592
     39 H4         -0.5289    1.8773    0.9072 H         1 <0>         0.0601
     40 H5          0.5123   -0.3556   -0.8948 H         1 <0>         0.0670
     41 H6          0.5293   -0.3651    0.8851 H         1 <0>         0.0686
     42 H7         -1.9435   -0.1821    0.9097 H         1 <0>         0.1040
     43 H8         -1.9605   -0.1726   -0.8702 H         1 <0>         0.1018
     44 H9         -0.8790   -8.3156   -1.5830 H         1 <0>         0.1178
     45 H10        -0.5932   -6.4398   -3.9278 H         1 <0>         0.0622
     46 H11         0.4408   -7.8204   -3.4433 H         1 <0>         0.0821
     47 H12        -1.2063   -8.1014   -5.5593 H         1 <0>         0.0740
     48 H13        -1.0951   -9.4354   -4.3640 H         1 <0>         0.0764
     49 H14        -3.2161   -7.2268   -4.5621 H         1 <0>         0.0666
     50 H15        -3.4654   -8.9924   -4.3880 H         1 <0>         0.0746
     51 H16        -3.0113   -8.9559   -2.0995 H         1 <0>         0.0826
     52 H17        -3.4915   -7.2412   -2.2412 H         1 <0>         0.0686
     53 H18        -1.8838   -4.0952    3.2487 H         1 <0>         0.1060
     54 H19        -1.8668   -5.6652    2.4102 H         1 <0>         0.1045
     55 H20         0.6009   -5.5304    2.2079 H         1 <0>         0.0785
     56 H21         0.5838   -3.9604    3.0463 H         1 <0>         0.0786
     57 H22        -0.4206   -5.0369    5.0416 H         1 <0>         0.0785
     58 H23        -0.4035   -6.6069    4.2031 H         1 <0>         0.0787
     59 H24         2.2148   -5.5490    4.1646 H         1 <0>         0.4017
     60 H25         3.9922   -5.7436    4.5857 H         1 <0>         0.1403
     61 H26         6.3157   -6.1030    5.3081 H         1 <0>         0.1468
     62 H27         4.9352   -8.0351    8.8527 H         1 <0>         0.1521
     63 H28         2.6044   -7.6754    8.1543 H         1 <0>         0.1546
@<TRIPOS>BOND
     1    1    2 1
     2    1   37 1
     3    1   38 1
     4    1   39 1
     5    2    3 1
     6    2   40 1
     7    2   41 1
     8    3   42 1
     9    3   43 1
    10    3    4 1
    11    4   19 am
    12    4    5 am
    13    5    6 2
    14    5    7 1
    15    7   12 1
    16    7    8 2
    17    8    9 1
    18    8   18 1
    19    9   11 2
    20   10   12 1
    21   11   12 1
    22   11   13 1
    23   13   17 1
    24   13   14 1
    25   13   44 1
    26   14   15 1
    27   14   45 1
    28   14   46 1
    29   15   16 1
    30   15   47 1
    31   15   48 1
    32   16   17 1
    33   16   49 1
    34   16   50 1
    35   17   51 1
    36   17   52 1
    37   18   21 1
    38   18   19 am
    39   19   20 2
    40   21   22 1
    41   21   53 1
    42   21   54 1
    43   22   23 1
    44   22   55 1
    45   22   56 1
    46   23   24 1
    47   23   57 1
    48   23   58 1
    49   24   25 am
    50   24   59 1
    51   25   26 2
    52   25   27 1
    53   27   32 ar
    54   27   28 ar
    55   28   29 ar
    56   28   60 1
    57   29   30 ar
    58   29   61 1
    59   30   31 ar
    60   30   33 1
    61   31   32 ar
    62   31   62 1
    63   32   63 1
    64   33   34 2
    65   33   35 2
    66   33   36 1
@<TRIPOS>MOLECULE
CHEMBL513320
   34    37     0     0     0
SMALL
USER_CHARGES

@<TRIPOS>ATOM
      1 C1         -0.0162    1.3446    0.0094 C.2       1 <0>        -0.2232
      2 C2          1.3234    1.7757   -0.0010 C.2       1 <0>        -0.1317
      3 C3          2.0959    0.6545   -0.0144 C.2       1 <0>        -0.0030
      4 O1          1.2787   -0.4170   -0.0124 O.3       1 <0>        -0.1647
      5 C4          0.0021   -0.0041    0.0020 C.2       1 <0>        -0.0093
      6 C5          3.5700    0.6190   -0.0291 C.ar      1 <0>         0.2953
      7 C6          4.2266   -0.6118   -0.0477 C.ar      1 <0>        -0.2035
      8 C7          5.6184   -0.6402   -0.0615 C.ar      1 <0>         0.1025
      9 C8          6.3126    0.5911   -0.0561 C.ar      1 <0>        -0.1484
     10 C9          5.5737    1.7870   -0.0371 C.ar      1 <0>         0.4712
     11 N1          4.2524    1.7617   -0.0300 N.ar      1 <0>        -0.5302
     12 N2          6.2363    3.0022   -0.0311 N.pl3     1 <0>        -0.8332
     13 C10         7.7442    0.6199   -0.0693 C.1       1 <0>         0.2553
     14 N3          8.8800    0.6427   -0.0798 N.1       1 <0>        -0.4061
     15 C11         6.3523   -1.9264   -0.0809 C.ar      1 <0>        -0.0624
     16 C12         7.3675   -2.1379   -1.0139 C.ar      1 <0>        -0.0801
     17 C13         8.0502   -3.3359   -1.0309 C.ar      1 <0>        -0.0974
     18 C14         7.7308   -4.3342   -0.1218 C.ar      1 <0>         0.0491
     19 C15         6.7171   -4.1283    0.8134 C.ar      1 <0>         0.0335
     20 C16         6.0337   -2.9267    0.8376 C.ar      1 <0>        -0.0716
     21 O2          6.6002   -5.2498    1.5833 O.3       1 <0>        -0.3049
     22 C17         7.2691   -6.2916    0.8484 C.3       1 <0>         0.2124
     23 O3          8.2471   -5.5837    0.0641 O.3       1 <0>        -0.3052
     24 H1         -0.8933    1.9746    0.0252 H         1 <0>         0.1557
     25 H2          1.6714    2.7981    0.0006 H         1 <0>         0.1597
     26 H3         -0.8669   -0.6454    0.0069 H         1 <0>         0.2112
     27 H4          3.6615   -1.5322   -0.0509 H         1 <0>         0.1519
     28 H5          7.2059    3.0260   -0.0400 H         1 <0>         0.4129
     29 H6          5.7309    3.8301   -0.0180 H         1 <0>         0.4142
     30 H7          7.6187   -1.3633   -1.7234 H         1 <0>         0.1388
     31 H8          8.8357   -3.4978   -1.7543 H         1 <0>         0.1426
     32 H9          5.2512   -2.7644    1.5640 H         1 <0>         0.1445
     33 H10         7.7566   -6.9886    1.5300 H         1 <0>         0.1354
     34 H11         6.5659   -6.8159    0.2013 H         1 <0>         0.0889
@<TRIPOS>BOND
     1    1    5 2
     2    1    2 1
     3    1   24 1
     4    2    3 2
     5    2   25 1
     6    3    4 1
     7    3    6 1
     8    4    5 1
     9    5   26 1
    10    6   11 ar
    11    6    7 ar
    12    7    8 ar
    13    7   27 1
    14    8    9 ar
    15    8   15 1
    16    9   10 ar
    17    9   13 1
    18   10   11 ar
    19   10   12 1
    20   12   28 1
    21   12   29 1
    22   13   14 3
    23   15   20 ar
    24   15   16 ar
    25   16   17 ar
    26   16   30 1
    27   17   18 ar
    28   17   31 1
    29   18   23 1
    30   18   19 ar
    31   19   20 ar
    32   19   21 1
    33   20   32 1
    34   21   22 1
    35   22   23 1
    36   22   33 1
    37   22   34 1
@<TRIPOS>MOLECULE
CHEMBL457102
   42    45     0     0     0
SMALL
USER_CHARGES

@<TRIPOS>ATOM
      1 C1         -0.0123    1.3843    0.0831 C.ar      1 <0>        -0.0939
      2 C2          1.0818    1.9667   -0.5320 C.ar      1 <0>        -0.1258
      3 C3          2.2888    1.3001   -0.5745 C.ar      1 <0>        -0.0632
      4 C4          2.4049    0.0356    0.0048 C.ar      1 <0>        -0.1506
      5 C5          1.2975   -0.5462    0.6237 C.ar      1 <0>        -0.0863
      6 C6          0.0961    0.1310    0.6593 C.ar      1 <0>        -0.1234
      7 C7          3.6964   -0.6853   -0.0375 C.2       1 <0>         0.4769
      8 O1          4.7380   -0.0633   -0.1576 O.2       1 <0>        -0.4349
      9 C8          3.7224   -2.0917    0.0611 C.2       1 <0>        -0.3419
     10 C9          4.8210   -2.9656    0.1662 C.2       1 <0>         0.2927
     11 N1          4.5248   -4.2488    0.2432 N.2       1 <0>        -0.5851
     12 C10         3.2758   -4.6702    0.2220 C.2       1 <0>         0.3327
     13 S1          2.3707   -3.2579    0.0954 S.3       1 <0>         0.1668
     14 N2          2.8176   -5.9668    0.2934 N.pl3     1 <0>        -0.6633
     15 C11         1.3785   -6.2384    0.2541 C.3       1 <0>         0.1188
     16 C12         1.1414   -7.7469    0.3491 C.3       1 <0>        -0.0423
     17 C13        -0.3390   -8.0262    0.3087 C.2       1 <0>        -0.1541
     18 C14        -1.1340   -8.2627   -0.7633 C.2       1 <0>        -0.1446
     19 C15        -2.4809   -8.4979   -0.5601 C.2       1 <0>        -0.1599
     20 C16        -2.9669   -8.4850    0.7052 C.2       1 <0>        -0.1650
     21 S2         -1.4991   -8.1393    1.6609 S.3       1 <0>         0.0430
     22 C17         6.2101   -2.4793    0.1881 C.2       1 <0>         0.0240
     23 C18         7.2384   -3.0249    0.8980 C.2       1 <0>        -0.1477
     24 C19         8.3772   -2.2457    0.6246 C.2       1 <0>        -0.2262
     25 C20         7.9960   -1.2727   -0.2289 C.2       1 <0>        -0.0122
     26 O2          6.6888   -1.4203   -0.4946 O.3       1 <0>        -0.1323
     27 H1         -0.9539    1.9122    0.1176 H         1 <0>         0.1287
     28 H2          0.9905    2.9450   -0.9802 H         1 <0>         0.1308
     29 H3          3.1419    1.7556   -1.0552 H         1 <0>         0.1342
     30 H4          1.3808   -1.5246    1.0735 H         1 <0>         0.1268
     31 H5         -0.7615   -0.3179    1.1382 H         1 <0>         0.1304
     32 H6          3.4476   -6.7004    0.3698 H         1 <0>         0.4193
     33 H7          0.8917   -5.7405    1.0927 H         1 <0>         0.0815
     34 H8          0.9635   -5.8636   -0.6816 H         1 <0>         0.0829
     35 H9          1.6281   -8.2448   -0.4895 H         1 <0>         0.0997
     36 H10         1.5564   -8.1217    1.2848 H         1 <0>         0.0930
     37 H11        -0.7214   -8.2670   -1.7614 H         1 <0>         0.1348
     38 H12        -3.1363   -8.6886   -1.3971 H         1 <0>         0.1363
     39 H13        -3.9786   -8.6462    1.0468 H         1 <0>         0.1876
     40 H14         7.1882   -3.8880    1.5452 H         1 <0>         0.1518
     41 H15         9.3694   -2.3974    1.0232 H         1 <0>         0.1529
     42 H16         8.6377   -0.5045   -0.6345 H         1 <0>         0.2073
@<TRIPOS>BOND
     1    1    6 ar
     2    1    2 ar
     3    1   27 1
     4    2    3 ar
     5    2   28 1
     6    3    4 ar
     7    3   29 1
     8    4    5 ar
     9    4    7 1
    10    5    6 ar
    11    5   30 1
    12    6   31 1
    13    7    8 2
    14    7    9 1
    15    9   13 1
    16    9   10 2
    17   10   11 1
    18   10   22 1
    19   11   12 2
    20   12   13 1
    21   12   14 1
    22   14   15 1
    23   14   32 1
    24   15   16 1
    25   15   33 1
    26   15   34 1
    27   16   17 1
    28   16   35 1
    29   16   36 1
    30   17   21 1
    31   17   18 2
    32   18   19 1
    33   18   37 1
    34   19   20 2
    35   19   38 1
    36   20   21 1
    37   20   39 1
    38   22   26 1
    39   22   23 2
    40   23   24 1
    41   23   40 1
    42   24   25 2
    43   24   41 1
    44   25   26 1
    45   25   42 1
@<TRIPOS>MOLECULE
CHEMBL1087727
   56    60     0     0     0
SMALL
USER_CHARGES

@<TRIPOS>ATOM
      1 C1         -0.0167    1.3793    0.0096 C.ar      1 <0>        -0.0878
      2 C2          1.1685    2.0929    0.0021 C.ar      1 <0>        -0.1319
      3 C3          2.3774    1.4279   -0.0130 C.ar      1 <0>        -0.0638
      4 C4          2.4029    0.0333   -0.0207 C.ar      1 <0>        -0.0889
      5 C5          1.2046   -0.6805   -0.0131 C.ar      1 <0>        -0.0602
      6 C6          0.0021   -0.0041    0.0020 C.ar      1 <0>        -0.1264
      7 C7          3.6972   -0.6866   -0.0375 C.ar      1 <0>         0.3513
      8 C8          3.8485   -1.9053    0.6416 C.ar      1 <0>        -0.3478
      9 C9          5.0995   -2.5526    0.5963 C.ar      1 <0>         0.2964
     10 N1          6.0850   -1.9878   -0.0854 N.ar      1 <0>        -0.5636
     11 C10         5.9016   -0.8324   -0.7162 C.ar      1 <0>         0.6056
     12 N2          4.7422   -0.1938   -0.7026 N.ar      1 <0>        -0.5646
     13 N3          6.9560   -0.2811   -1.4137 N.pl3     1 <0>        -0.8008
     14 C11         5.0091   -3.8087    1.3828 C.ar      1 <0>        -0.0256
     15 C12         5.9398   -4.8012    1.6568 C.ar      1 <0>        -0.0592
     16 C13         5.5832   -5.8911    2.4363 C.ar      1 <0>        -0.0915
     17 C14         4.3040   -5.9981    2.9448 C.ar      1 <0>        -0.0691
     18 C15         3.3631   -5.0152    2.6796 C.ar      1 <0>        -0.0500
     19 C16         3.7079   -3.9189    1.9009 C.ar      1 <0>        -0.1181
     20 C17         2.9384   -2.7304    1.4536 C.2       1 <0>         0.4571
     21 O1          1.7764   -2.4848    1.7094 O.2       1 <0>        -0.3978
     22 C18         6.5980   -6.9658    2.7299 C.3       1 <0>         0.0615
     23 N4          7.3232   -6.6308    3.9628 N.3       1 <0>        -0.5020
     24 N5          8.3131   -7.6482    4.2778 N.4       1 <0>        -0.2293
     25 C19         7.6360   -8.7765    4.9461 C.3       1 <0>         0.0180
     26 C20         8.4628  -10.0194    4.7311 C.3       1 <0>        -0.1508
     27 C21         9.3970  -10.2883    5.9257 C.3       1 <0>        -0.1308
     28 C22        10.0309   -8.9882    6.4604 C.3       1 <0>        -0.1409
     29 C23        10.4621   -8.0616    5.3524 C.3       1 <0>        -0.1302
     30 C24         9.3194   -7.0689    5.0527 C.3       1 <0>        -0.0375
     31 H1         -0.9604    1.9042    0.0260 H         1 <0>         0.1293
     32 H2          1.1475    3.1726    0.0078 H         1 <0>         0.1308
     33 H3          3.3020    1.9860   -0.0192 H         1 <0>         0.1300
     34 H4          1.2180   -1.7604   -0.0194 H         1 <0>         0.1328
     35 H5         -0.9264   -0.5556    0.0083 H         1 <0>         0.1307
     36 H6          7.8124   -0.7360   -1.4376 H         1 <0>         0.4198
     37 H7          6.8412    0.5615   -1.8803 H         1 <0>         0.4241
     38 H8          6.9422   -4.7247    1.2623 H         1 <0>         0.1398
     39 H9          4.0354   -6.8506    3.5509 H         1 <0>         0.1454
     40 H10         2.3631   -5.1023    3.0782 H         1 <0>         0.1503
     41 H11         6.0891   -7.9214    2.8559 H         1 <0>         0.1197
     42 H12         7.3029   -7.0360    1.9014 H         1 <0>         0.0850
     43 H13         7.7505   -5.7194    3.8946 H         1 <0>         0.3923
     44 H14         7.5494   -8.5729    6.0134 H         1 <0>         0.1374
     45 H15         6.6440   -8.9162    4.5165 H         1 <0>         0.1340
     46 H16         7.7967  -10.8723    4.6006 H         1 <0>         0.1119
     47 H17         9.0632   -9.8964    3.8298 H         1 <0>         0.0799
     48 H18         8.8249  -10.7594    6.7250 H         1 <0>         0.0823
     49 H19        10.1899  -10.9667    5.6108 H         1 <0>         0.0821
     50 H20         9.3038   -8.4733    7.0884 H         1 <0>         0.0725
     51 H21        10.9005   -9.2427    7.0663 H         1 <0>         0.0880
     52 H22        11.3508   -7.5117    5.6621 H         1 <0>         0.1129
     53 H23        10.6847   -8.6423    4.4573 H         1 <0>         0.0873
     54 H24         9.7268   -6.2098    4.5198 H         1 <0>         0.1258
     55 H25         8.8895   -6.7284    5.9948 H         1 <0>         0.1386
     56 H26         8.7193   -7.9812    3.4163 H         1 <0>         0.3959
@<TRIPOS>BOND
     1    1    6 ar
     2    1    2 ar
     3    1   31 1
     4    2    3 ar
     5    2   32 1
     6    3    4 ar
     7    3   33 1
     8    4    5 ar
     9    4    7 1
    10    5    6 ar
    11    5   34 1
    12    6   35 1
    13    7   12 ar
    14    7    8 ar
    15    8   20 1
    16    8    9 ar
    17    9   10 ar
    18    9   14 1
    19   10   11 ar
    20   11   12 ar
    21   11   13 1
    22   13   36 1
    23   13   37 1
    24   14   19 ar
    25   14   15 ar
    26   15   16 ar
    27   15   38 1
    28   16   17 ar
    29   16   22 1
    30   17   18 ar
    31   17   39 1
    32   18   19 ar
    33   18   40 1
    34   19   20 1
    35   20   21 2
    36   22   23 1
    37   22   41 1
    38   22   42 1
    39   23   24 1
    40   23   43 1
    41   24   30 1
    42   24   25 1
    43   24   56 1
    44   25   26 1
    45   25   44 1
    46   25   45 1
    47   26   27 1
    48   26   46 1
    49   26   47 1
    50   27   28 1
    51   27   48 1
    52   27   49 1
    53   28   29 1
    54   28   50 1
    55   28   51 1
    56   29   30 1
    57   29   52 1
    58   29   53 1
    59   30   54 1
    60   30   55 1
@<TRIPOS>MOLECULE
CHEMBL605668
   52    55     0     0     0
SMALL
USER_CHARGES

@<TRIPOS>ATOM
      1 C1         -0.0184    1.5028    0.0103 C.3       1 <0>        -0.1171
      2 C2          0.0021   -0.0041    0.0020 C.ar      1 <0>        -0.0854
      3 C3          0.0057   -0.6887   -1.1989 C.ar      1 <0>        -0.1195
      4 C4          0.0245   -2.0709   -1.2065 C.ar      1 <0>        -0.1071
      5 C5          0.0400   -2.7685   -0.0132 C.ar      1 <0>        -0.0892
      6 C6          0.0373   -2.0839    1.1877 C.ar      1 <0>        -0.1072
      7 C7          0.0229   -0.7016    1.1953 C.ar      1 <0>        -0.1196
      8 C8          0.0595   -4.2753   -0.0215 C.3       1 <0>        -0.0799
      9 C9          1.5084   -4.7666   -0.0322 C.3       1 <0>         0.0843
     10 O1          1.5268   -6.1955   -0.0401 O.3       1 <0>        -0.2834
     11 C10         2.7420   -6.7950   -0.0501 C.ar      1 <0>         0.5702
     12 N1          3.8292   -6.0367   -0.0466 N.ar      1 <0>        -0.6303
     13 C11         5.0430   -6.5763   -0.0560 C.ar      1 <0>         0.5426
     14 C12         5.1552   -7.9775   -0.0698 C.ar      1 <0>        -0.1385
     15 C13         3.9753   -8.7392   -0.0730 C.ar      1 <0>         0.3542
     16 N2          2.8015   -8.1148   -0.0576 N.ar      1 <0>        -0.5530
     17 N3          4.3724  -10.0523   -0.0870 N.pl3     1 <0>        -0.4689
     18 C14         5.7364  -10.0669   -0.0919 C.2       1 <0>         0.2567
     19 N4          6.1935   -8.8489   -0.0818 N.2       1 <0>        -0.4528
     20 C15         3.4928  -11.2238   -0.0945 C.3       1 <0>         0.3156
     21 C16         3.1605  -11.6660    1.3534 C.3       1 <0>         0.0776
     22 H1          4.0249  -11.5428    2.0059 H         1 <0>         0.0908
     23 C17         2.8199  -13.1644    1.1648 C.3       1 <0>         0.0451
     24 H2          3.2381  -13.7561    1.9790 H         1 <0>         0.0878
     25 C18         3.4884  -13.5383   -0.1724 C.3       1 <0>         0.0527
     26 H3          2.7298  -13.8413   -0.8940 H         1 <0>         0.0990
     27 O2          4.1761  -12.3690   -0.6479 O.3       1 <0>        -0.3481
     28 C19         4.4844  -14.6791    0.0451 C.3       1 <0>         0.0773
     29 O3          5.0127  -15.0969   -1.2153 O.3       1 <0>        -0.5628
     30 O4          1.4050  -13.3499    1.0887 O.3       1 <0>        -0.5351
     31 O5          2.0349  -10.9464    1.8607 O.3       1 <0>        -0.5200
     32 N5          6.1722   -5.7767   -0.0527 N.pl3     1 <0>        -0.8128
     33 H4          1.0042    1.8801    0.0026 H         1 <0>         0.0711
     34 H5         -0.5455    1.8639   -0.8728 H         1 <0>         0.0667
     35 H6         -0.5286    1.8543    0.9071 H         1 <0>         0.0667
     36 H7         -0.0064   -0.1436   -2.1312 H         1 <0>         0.1228
     37 H8          0.0266   -2.6057   -2.1448 H         1 <0>         0.1235
     38 H9          0.0491   -2.6289    2.1200 H         1 <0>         0.1234
     39 H10         0.0245   -0.1667    2.1335 H         1 <0>         0.1227
     40 H11        -0.4447   -4.6501    0.8693 H         1 <0>         0.0853
     41 H12        -0.4546   -4.6404   -0.9106 H         1 <0>         0.0852
     42 H13         2.0126   -4.3918   -0.9230 H         1 <0>         0.0723
     43 H14         2.0224   -4.4015    0.8569 H         1 <0>         0.0725
     44 H15         6.3467  -10.9579   -0.1026 H         1 <0>         0.2234
     45 H16         2.5808  -11.0140   -0.6532 H         1 <0>         0.1250
     46 H17         5.2978  -14.3345    0.6837 H         1 <0>         0.0591
     47 H18         3.9778  -15.5177    0.5227 H         1 <0>         0.0661
     48 H19         5.6526  -15.8193   -1.1535 H         1 <0>         0.3859
     49 H20         1.1349  -14.2709    0.9705 H         1 <0>         0.3858
     50 H21         1.7881  -11.1881    2.7639 H         1 <0>         0.3869
     51 H22         6.0825   -4.8109   -0.0434 H         1 <0>         0.4110
     52 H23         7.0535   -6.1819   -0.0597 H         1 <0>         0.4216
@<TRIPOS>BOND
     1    1    2 1
     2    1   33 1
     3    1   34 1
     4    1   35 1
     5    2    7 ar
     6    2    3 ar
     7    3    4 ar
     8    3   36 1
     9    4    5 ar
    10    4   37 1
    11    5    6 ar
    12    5    8 1
    13    6    7 ar
    14    6   38 1
    15    7   39 1
    16    8    9 1
    17    8   40 1
    18    8   41 1
    19    9   10 1
    20    9   42 1
    21    9   43 1
    22   10   11 1
    23   11   16 ar
    24   11   12 ar
    25   12   13 ar
    26   13   14 ar
    27   13   32 1
    28   14   19 1
    29   14   15 ar
    30   15   16 ar
    31   15   17 1
    32   17   18 1
    33   17   20 1
    34   18   19 2
    35   18   44 1
    36   20   27 1
    37   20   21 1
    38   20   45 1
    39   21   22 1
    40   21   23 1
    41   21   31 1
    42   23   24 1
    43   23   25 1
    44   23   30 1
    45   25   26 1
    46   25   27 1
    47   25   28 1
    48   28   29 1
    49   28   46 1
    50   28   47 1
    51   29   48 1
    52   30   49 1
    53   31   50 1
    54   32   51 1
    55   32   52 1
@<TRIPOS>MOLECULE
CHEMBL609603
   35    37     0     0     0
SMALL
USER_CHARGES

@<TRIPOS>ATOM
      1 C1         -0.0167    1.3780    0.0096 C.ar      1 <0>        -0.1160
      2 C2          1.1709    2.0861    0.0021 C.ar      1 <0>        -0.0963
      3 C3          2.3773    1.4123   -0.0135 C.ar      1 <0>        -0.1120
      4 C4          2.3967    0.0287   -0.0210 C.ar      1 <0>        -0.0197
      5 C5          1.2083   -0.6792   -0.0130 C.ar      1 <0>        -0.1050
      6 C6          0.0021   -0.0041    0.0020 C.ar      1 <0>        -0.0852
      7 C7          1.2286   -2.1860   -0.0218 C.3       1 <0>         0.1591
      8 N1          1.4887   -2.6787    1.3331 N.am      1 <0>        -0.6981
      9 C8          1.5517   -4.0045    1.5675 C.2       1 <0>         0.5877
     10 O1          1.3929   -4.7905    0.6557 O.2       1 <0>        -0.4864
     11 C9          1.8160   -4.5050    2.9440 C.ar      1 <0>         0.3847
     12 N2          1.8833   -5.8098    3.1728 N.ar      1 <0>        -0.5339
     13 C10         2.1205   -6.2588    4.4058 C.ar      1 <0>         0.4879
     14 N3          2.2895   -5.3950    5.4062 N.ar      1 <0>        -0.5799
     15 C11         2.2213   -4.0897    5.1729 C.ar      1 <0>         0.6142
     16 N4          1.9895   -3.6451    3.9403 N.ar      1 <0>        -0.5877
     17 N5          2.3962   -3.1936    6.2082 N.pl3     1 <0>        -0.7962
     18 C12         2.1951   -7.7086    4.6619 C.2       1 <0>         0.0043
     19 C13         2.4244   -8.2966    5.8686 C.2       1 <0>        -0.1120
     20 C14         2.4115   -9.6862    5.6509 C.2       1 <0>        -0.2280
     21 C15         2.1774   -9.8787    4.3360 C.2       1 <0>         0.0063
     22 O2          2.0424   -8.6833    3.7435 O.3       1 <0>        -0.1459
     23 Cl1         3.9119   -0.8184   -0.0411 Cl        1 <0>        -0.0587
     24 H1         -0.9592    1.9049    0.0259 H         1 <0>         0.1332
     25 H2          1.1556    3.1659    0.0080 H         1 <0>         0.1350
     26 H3          3.3048    1.9655   -0.0201 H         1 <0>         0.1366
     27 H4         -0.9258   -0.5566    0.0079 H         1 <0>         0.1361
     28 H5          0.2643   -2.5603   -0.3656 H         1 <0>         0.0885
     29 H6          2.0139   -2.5349   -0.6923 H         1 <0>         0.0894
     30 H7          1.6155   -2.0509    2.0615 H         1 <0>         0.4139
     31 H8          2.5688   -3.5175    7.1061 H         1 <0>         0.4225
     32 H9          2.3464   -2.2400    6.0379 H         1 <0>         0.4226
     33 H10         2.5851   -7.7934    6.8106 H         1 <0>         0.1637
     34 H11         2.5612  -10.4540    6.3954 H         1 <0>         0.1603
     35 H12         2.1066  -10.8371    3.8431 H         1 <0>         0.2150
@<TRIPOS>BOND
     1    1    6 ar
     2    1    2 ar
     3    1   24 1
     4    2    3 ar
     5    2   25 1
     6    3    4 ar
     7    3   26 1
     8    4    5 ar
     9    4   23 1
    10    5    6 ar
    11    5    7 1
    12    6   27 1
    13    7    8 1
    14    7   28 1
    15    7   29 1
    16    8    9 am
    17    8   30 1
    18    9   10 2
    19    9   11 1
    20   11   16 ar
    21   11   12 ar
    22   12   13 ar
    23   13   14 ar
    24   13   18 1
    25   14   15 ar
    26   15   16 ar
    27   15   17 1
    28   17   31 1
    29   17   32 1
    30   18   22 1
    31   18   19 2
    32   19   20 1
    33   19   33 1
    34   20   21 2
    35   20   34 1
    36   21   22 1
    37   21   35 1
@<TRIPOS>MOLECULE
CHEMBL175824
   57    61     0     0     0
SMALL
USER_CHARGES

@<TRIPOS>ATOM
      1 C1         -0.0178    1.4648    0.0101 C.3       1 <0>        -0.0581
      2 N1          0.0021   -0.0041    0.0020 N.4       1 <0>        -0.3851
      3 C2         -1.3761   -0.5125    0.0124 C.3       1 <0>        -0.0064
      4 C3         -2.0780   -0.1101   -1.2861 C.3       1 <0>        -0.0998
      5 C4         -3.4918   -0.6317   -1.2754 C.ar      1 <0>        -0.1080
      6 C5         -3.7687   -1.8884   -1.7803 C.ar      1 <0>        -0.1102
      7 C6         -5.0655   -2.3669   -1.7705 C.ar      1 <0>        -0.1139
      8 C7         -6.0854   -1.5889   -1.2554 C.ar      1 <0>        -0.1045
      9 C8         -5.8084   -0.3325   -0.7497 C.ar      1 <0>        -0.1142
     10 C9         -4.5109    0.1442   -0.7556 C.ar      1 <0>        -0.1103
     11 C10         0.7126   -0.4907    1.1921 C.3       1 <0>         0.0453
     12 C11         2.1584   -0.0720    1.1202 C.ar      1 <0>        -0.1661
     13 C12         3.0860   -0.8954    0.5071 C.ar      1 <0>        -0.0783
     14 C13         4.4148   -0.5176    0.4368 C.ar      1 <0>        -0.1117
     15 C14         4.8230    0.6841    0.9791 C.ar      1 <0>        -0.0590
     16 C15         3.8929    1.5180    1.5981 C.ar      1 <0>        -0.0377
     17 C16         2.5536    1.1343    1.6608 C.ar      1 <0>        -0.0538
     18 C17         4.3248    2.8097    2.1823 C.2       1 <0>         0.2294
     19 C18         5.6523    3.1914    2.1083 C.2       1 <0>        -0.2019
     20 C19         6.0274    4.4239    2.6728 C.2       1 <0>         0.3487
     21 N2          7.1780    5.0708    2.7732 N.2       1 <0>        -0.5141
     22 C20         6.9869    6.2279    3.4148 C.2       1 <0>         0.3633
     23 N3          5.7113    6.3444    3.7375 N.2       1 <0>        -0.3134
     24 N4          5.0627    5.1935    3.2717 N.pl3     1 <0>        -0.3620
     25 C21         3.7726    4.7588    3.3104 C.2       1 <0>         0.6610
     26 N5          3.4263    3.6095    2.7774 N.2       1 <0>        -0.5611
     27 N6          2.8145    5.5397    3.9137 N.pl3     1 <0>        -0.8042
     28 C22         8.0388    7.2215    3.7165 C.2       1 <0>         0.0239
     29 C23         9.3532    7.1170    3.3858 C.2       1 <0>        -0.1188
     30 C24         9.9860    8.2811    3.8650 C.2       1 <0>        -0.2196
     31 C25         9.0363    9.0308    4.4584 C.2       1 <0>         0.0007
     32 O1          7.8603    8.3904    4.3616 O.3       1 <0>        -0.1604
     33 H1          1.0047    1.8421    0.0024 H         1 <0>         0.1249
     34 H2         -0.5450    1.8259   -0.8730 H         1 <0>         0.1250
     35 H3         -0.5280    1.8163    0.9069 H         1 <0>         0.1238
     36 H4         -1.3618   -1.5992    0.0960 H         1 <0>         0.1326
     37 H5         -1.9129   -0.0898    0.8617 H         1 <0>         0.1320
     38 H6         -2.0923    0.9766   -1.3697 H         1 <0>         0.0952
     39 H7         -1.5412   -0.5328   -2.1354 H         1 <0>         0.0947
     40 H8         -2.9719   -2.4963   -2.1828 H         1 <0>         0.1242
     41 H9         -5.2820   -3.3485   -2.1656 H         1 <0>         0.1294
     42 H10        -7.0988   -1.9624   -1.2484 H         1 <0>         0.1295
     43 H11        -6.6053    0.2755   -0.3475 H         1 <0>         0.1291
     44 H12        -4.2939    1.1243   -0.3571 H         1 <0>         0.1235
     45 H13         0.2557   -0.0671    2.0865 H         1 <0>         0.1371
     46 H14         0.6508   -1.5782    1.2328 H         1 <0>         0.1386
     47 H15         2.7714   -1.8371    0.0820 H         1 <0>         0.1355
     48 H16         5.1343   -1.1645   -0.0430 H         1 <0>         0.1440
     49 H17         5.8608    0.9777    0.9242 H         1 <0>         0.1448
     50 H18         1.8279    1.7781    2.1355 H         1 <0>         0.1450
     51 H19         6.3836    2.5578    1.6286 H         1 <0>         0.1679
     52 H20         3.0602    6.3917    4.3068 H         1 <0>         0.4281
     53 H21         1.8930    5.2383    3.9461 H         1 <0>         0.4288
     54 H22         9.8218    6.2997    2.8579 H         1 <0>         0.1638
     55 H23        11.0339    8.5260    3.7743 H         1 <0>         0.1622
     56 H24         9.1943    9.9897    4.9297 H         1 <0>         0.2162
     57 H25         0.4744   -0.3295   -0.8281 H         1 <0>         0.4242
@<TRIPOS>BOND
     1    1    2 1
     2    1   33 1
     3    1   34 1
     4    1   35 1
     5    2    3 1
     6    2   11 1
     7    2   57 1
     8    3    4 1
     9    3   36 1
    10    3   37 1
    11    4    5 1
    12    4   38 1
    13    4   39 1
    14    5   10 ar
    15    5    6 ar
    16    6    7 ar
    17    6   40 1
    18    7    8 ar
    19    7   41 1
    20    8    9 ar
    21    8   42 1
    22    9   10 ar
    23    9   43 1
    24   10   44 1
    25   11   12 1
    26   11   45 1
    27   11   46 1
    28   12   17 ar
    29   12   13 ar
    30   13   14 ar
    31   13   47 1
    32   14   15 ar
    33   14   48 1
    34   15   16 ar
    35   15   49 1
    36   16   17 ar
    37   16   18 1
    38   17   50 1
    39   18   26 1
    40   18   19 2
    41   19   20 1
    42   19   51 1
    43   20   24 1
    44   20   21 2
    45   21   22 1
    46   22   23 2
    47   22   28 1
    48   23   24 1
    49   24   25 1
    50   25   26 2
    51   25   27 1
    52   27   52 1
    53   27   53 1
    54   28   32 1
    55   28   29 2
    56   29   30 1
    57   29   54 1
    58   30   31 2
    59   30   55 1
    60   31   32 1
    61   31   56 1
@<TRIPOS>MOLECULE
CHEMBL281811
   40    42     0     0     0
SMALL
USER_CHARGES

@<TRIPOS>ATOM
      1 C1         -0.0178    1.4608    0.0101 C.3       1 <0>         0.0662
      2 N1          0.0021   -0.0041    0.0020 N.pl3     1 <0>        -0.4081
      3 C2          0.0086   -0.8192   -1.1121 C.2       1 <0>        -0.1572
      4 C3          0.0283   -2.1250   -0.6384 C.2       1 <0>         0.3193
      5 N2          0.0328   -2.0621    0.6956 N.2       1 <0>        -0.4880
      6 C4          0.0233   -0.8113    1.0805 C.2       1 <0>         0.2954
      7 C5          0.0306   -0.3446    2.5134 C.3       1 <0>        -0.0064
      8 C6          1.2935   -0.8554    3.2098 C.3       1 <0>        -0.1078
      9 C7          1.3009   -0.3815    4.6645 C.3       1 <0>        -0.1187
     10 C8          0.0657   -0.9263    5.3846 C.3       1 <0>        -0.1234
     11 C9         -1.1972   -0.4155    4.6882 C.3       1 <0>        -0.1187
     12 C10        -1.2046   -0.8893    3.2335 C.3       1 <0>        -0.1085
     13 N3          0.0392   -3.1673   -1.5511 N.am      1 <0>        -0.5099
     14 C11         0.0307   -2.9082   -2.8723 C.2       1 <0>         0.7075
     15 O1          0.0400   -3.8359   -3.6583 O.2       1 <0>        -0.5337
     16 N4          0.0117   -1.6498   -3.3444 N.am      1 <0>        -0.5521
     17 C12         0.0003   -0.5931   -2.5054 C.2       1 <0>         0.5950
     18 O2         -0.0172    0.5426   -2.9452 O.2       1 <0>        -0.5126
     19 C13         0.0032   -1.4222   -4.7916 C.3       1 <0>         0.0828
     20 C14         0.0604   -4.5537   -1.0779 C.3       1 <0>         0.0895
     21 H1          1.0048    1.8381    0.0023 H         1 <0>         0.0879
     22 H2         -0.5450    1.8219   -0.8730 H         1 <0>         0.1025
     23 H3         -0.5280    1.8123    0.9069 H         1 <0>         0.0961
     24 H4          0.0160    0.7450    2.5407 H         1 <0>         0.0929
     25 H5          1.3081   -1.9449    3.1825 H         1 <0>         0.0798
     26 H6          2.1735   -0.4673    2.6968 H         1 <0>         0.0641
     27 H7          2.2007   -0.7454    5.1606 H         1 <0>         0.0688
     28 H8          1.2864    0.7080    4.6918 H         1 <0>         0.0635
     29 H9          0.0803   -2.0158    5.3573 H         1 <0>         0.0660
     30 H10         0.0710   -0.5887    6.4210 H         1 <0>         0.0646
     31 H11        -2.0772   -0.8035    5.2012 H         1 <0>         0.0687
     32 H12        -1.2118    0.6741    4.7155 H         1 <0>         0.0634
     33 H13        -2.1044   -0.5254    2.7374 H         1 <0>         0.0640
     34 H14        -1.1901   -1.9789    3.2062 H         1 <0>         0.0801
     35 H15         0.0144   -2.3808   -5.3102 H         1 <0>         0.1058
     36 H16        -0.8955   -0.8703   -5.0673 H         1 <0>         0.0813
     37 H17         0.8843   -0.8460   -5.0739 H         1 <0>         0.0813
     38 H18        -0.9619   -4.9118   -0.9564 H         1 <0>         0.0731
     39 H19         0.5800   -5.1778   -1.8049 H         1 <0>         0.0934
     40 H20         0.5788   -4.6028   -0.1203 H         1 <0>         0.0919
@<TRIPOS>BOND
     1    1    2 1
     2    1   21 1
     3    1   22 1
     4    1   23 1
     5    2    6 1
     6    2    3 1
     7    3   17 1
     8    3    4 2
     9    4    5 1
    10    4   13 1
    11    5    6 2
    12    6    7 1
    13    7   12 1
    14    7    8 1
    15    7   24 1
    16    8    9 1
    17    8   25 1
    18    8   26 1
    19    9   10 1
    20    9   27 1
    21    9   28 1
    22   10   11 1
    23   10   29 1
    24   10   30 1
    25   11   12 1
    26   11   31 1
    27   11   32 1
    28   12   33 1
    29   12   34 1
    30   13   14 am
    31   13   20 1
    32   14   15 2
    33   14   16 am
    34   16   17 am
    35   16   19 1
    36   17   18 2
    37   19   35 1
    38   19   36 1
    39   19   37 1
    40   20   38 1
    41   20   39 1
    42   20   40 1
@<TRIPOS>MOLECULE
CHEMBL468506
   47    50     0     0     0
SMALL
USER_CHARGES

@<TRIPOS>ATOM
      1 C1         -0.0178    1.4608    0.0101 C.3       1 <0>         0.0824
      2 N1          0.0021   -0.0041    0.0020 N.am      1 <0>        -0.5223
      3 C2         -1.1911   -0.7148    0.0039 C.2       1 <0>         0.1483
      4 C3         -2.5378   -0.3412    0.0118 C.2       1 <0>        -0.1915
      5 C4         -3.2889   -1.4825    0.0090 C.2       1 <0>         0.1459
      6 N2         -2.4510   -2.5624   -0.0006 N.pl3     1 <0>        -0.5010
      7 H1         -2.7257   -3.4926   -0.0047 H         1 <0>         0.4304
      8 C5         -1.1497   -2.1067   -0.0039 C.2       1 <0>        -0.1009
      9 C6          0.1090   -2.7498   -0.0122 C.2       1 <0>         0.5863
     10 O1          0.1782   -3.9659   -0.0195 O.2       1 <0>        -0.5161
     11 N3          1.2324   -2.0043   -0.0125 N.am      1 <0>        -0.5511
     12 C7          1.1773   -0.6615   -0.0127 C.2       1 <0>         0.7006
     13 O2          2.2134   -0.0250   -0.0192 O.2       1 <0>        -0.5404
     14 C8          2.5372   -2.6703   -0.0212 C.3       1 <0>         0.0827
     15 C9         -4.7662   -1.5400    0.0157 C.ar      1 <0>        -0.0204
     16 C10        -5.5135   -0.3611    0.0200 C.ar      1 <0>        -0.0914
     17 C11        -6.8917   -0.4218    0.0257 C.ar      1 <0>        -0.0845
     18 C12        -7.5333   -1.6476    0.0272 C.ar      1 <0>        -0.0905
     19 C13        -6.7984   -2.8199    0.0234 C.ar      1 <0>        -0.0835
     20 C14        -5.4196   -2.7733    0.0118 C.ar      1 <0>        -0.1127
     21 C15        -9.0391   -1.7062    0.0335 C.3       1 <0>         0.1246
     22 O3         -9.5207   -1.7234   -1.3118 O.3       1 <0>        -0.3511
     23 C16       -10.8555   -1.7752   -1.4827 C.2       1 <0>         0.6434
     24 O4        -11.5911   -1.8049   -0.5159 O.2       1 <0>        -0.5321
     25 N4        -11.3755   -1.7939   -2.7259 N.am      1 <0>        -0.6110
     26 C17       -12.7582   -1.8475   -2.9030 C.2       1 <0>         0.2372
     27 C18       -13.4046   -1.8768   -4.0912 C.2       1 <0>        -0.2334
     28 C19       -14.7875   -1.9295   -3.8024 C.2       1 <0>        -0.1901
     29 C20       -14.9080   -1.9295   -2.4631 C.2       1 <0>        -0.0431
     30 O5        -13.6765   -1.8849   -1.9225 O.3       1 <0>        -0.1595
     31 H2          1.0048    1.8381    0.0023 H         1 <0>         0.1029
     32 H3         -0.5450    1.8219   -0.8730 H         1 <0>         0.0776
     33 H4         -0.5280    1.8123    0.9069 H         1 <0>         0.0778
     34 H5         -2.9173    0.6699    0.0190 H         1 <0>         0.1609
     35 H6          2.8568   -2.8299   -1.0510 H         1 <0>         0.0758
     36 H7          3.2674   -2.0456    0.4932 H         1 <0>         0.0959
     37 H8          2.4582   -3.6309    0.4878 H         1 <0>         0.0943
     38 H9         -5.0139    0.5964    0.0192 H         1 <0>         0.1381
     39 H10        -7.4711    0.4896    0.0294 H         1 <0>         0.1349
     40 H11        -7.3053   -3.7736    0.0253 H         1 <0>         0.1327
     41 H12        -4.8472   -3.6891    0.0043 H         1 <0>         0.1250
     42 H13        -9.3654   -2.6102    0.5478 H         1 <0>         0.0843
     43 H14        -9.4346   -0.8316    0.5499 H         1 <0>         0.0852
     44 H15       -10.7883   -1.7702   -3.4976 H         1 <0>         0.4386
     45 H16       -12.9514   -1.8626   -5.0714 H         1 <0>         0.1554
     46 H17       -15.5935   -1.9630   -4.5205 H         1 <0>         0.1559
     47 H18       -15.8371   -1.9637   -1.9135 H         1 <0>         0.2097
@<TRIPOS>BOND
     1    1    2 1
     2    1   31 1
     3    1   32 1
     4    1   33 1
     5    2   12 am
     6    2    3 1
     7    3    8 2
     8    3    4 1
     9    4    5 2
    10    4   34 1
    11    5    6 1
    12    5   15 1
    13    6    7 1
    14    6    8 1
    15    8    9 1
    16    9   10 2
    17    9   11 am
    18   11   12 am
    19   11   14 1
    20   12   13 2
    21   14   35 1
    22   14   36 1
    23   14   37 1
    24   15   20 ar
    25   15   16 ar
    26   16   17 ar
    27   16   38 1
    28   17   18 ar
    29   17   39 1
    30   18   19 ar
    31   18   21 1
    32   19   20 ar
    33   19   40 1
    34   20   41 1
    35   21   22 1
    36   21   42 1
    37   21   43 1
    38   22   23 1
    39   23   24 2
    40   23   25 am
    41   25   26 1
    42   25   44 1
    43   26   30 1
    44   26   27 2
    45   27   28 1
    46   27   45 1
    47   28   29 2
    48   28   46 1
    49   29   30 1
    50   29   47 1
@<TRIPOS>MOLECULE
CHEMBL577036
   49    52     0     0     0
SMALL
USER_CHARGES

@<TRIPOS>ATOM
      1 C1         -0.0167    1.3781    0.0096 C.ar      1 <0>        -0.1214
      2 C2          1.1709    2.0855    0.0021 C.ar      1 <0>        -0.1185
      3 C3          2.3773    1.4107   -0.0130 C.ar      1 <0>        -0.1132
      4 C4          2.3960    0.0285   -0.0201 C.ar      1 <0>        -0.0787
      5 C5          1.2084   -0.6789   -0.0117 C.ar      1 <0>        -0.1131
      6 C6          0.0021   -0.0041    0.0020 C.ar      1 <0>        -0.1184
      7 C7          3.7112   -0.7071   -0.0376 C.3       1 <0>        -0.0666
      8 C8          4.1714   -0.9633    1.3989 C.3       1 <0>        -0.1011
      9 S1          5.7544   -1.8488    1.3779 S.3       1 <0>         0.0124
     10 C9          6.1443   -2.0654    3.0825 C.ar      1 <0>         0.3673
     11 N1          5.3020   -1.5997    3.9972 N.ar      1 <0>        -0.5954
     12 C10         5.5517   -1.7385    5.2940 C.ar      1 <0>         0.5231
     13 C11         6.7333   -2.3926    5.6853 C.ar      1 <0>        -0.1144
     14 C12         7.5943   -2.8687    4.6830 C.ar      1 <0>         0.3284
     15 N2          7.2642   -2.6916    3.4075 N.ar      1 <0>        -0.5279
     16 N3          8.6496   -3.4531    5.3365 N.pl3     1 <0>        -0.4707
     17 C13         8.4214   -3.3274    6.6759 C.2       1 <0>         0.2631
     18 N4          7.2970   -2.7052    6.8781 N.2       1 <0>        -0.4569
     19 C14         9.8085   -4.0950    4.7110 C.3       1 <0>         0.3135
     20 H1          9.5091   -4.6111    3.7988 H         1 <0>         0.1235
     21 C15        10.9017   -3.0481    4.4024 C.3       1 <0>         0.0794
     22 H2         10.7988   -2.1837    5.0584 H         1 <0>         0.0851
     23 C16        12.2253   -3.7915    4.6899 C.3       1 <0>         0.0476
     24 H3         12.7768   -3.2946    5.4881 H         1 <0>         0.0870
     25 C17        11.7752   -5.1996    5.1383 C.3       1 <0>         0.0503
     26 H4         11.7788   -5.8865    4.2919 H         1 <0>         0.1004
     27 O1         10.4287   -5.0194    5.6312 O.3       1 <0>        -0.3466
     28 C18        12.6874   -5.7214    6.2503 C.3       1 <0>         0.0823
     29 O2         12.3277   -7.0671    6.5692 O.3       1 <0>        -0.5634
     30 O3         13.0224   -3.8707    3.5065 O.3       1 <0>        -0.5383
     31 O4         10.8374   -2.6459    3.0327 O.3       1 <0>        -0.5244
     32 N5          4.6683   -1.2495    6.2399 N.pl3     1 <0>        -0.8149
     33 H5         -0.9591    1.9053    0.0259 H         1 <0>         0.1214
     34 H6          1.1563    3.1654    0.0076 H         1 <0>         0.1223
     35 H7          3.3051    1.9634   -0.0196 H         1 <0>         0.1229
     36 H8          1.2231   -1.7588   -0.0176 H         1 <0>         0.1230
     37 H9         -0.9258   -0.5567    0.0082 H         1 <0>         0.1224
     38 H10         3.5884   -1.6586   -0.5549 H         1 <0>         0.0847
     39 H11         4.4573   -0.1052   -0.5563 H         1 <0>         0.0847
     40 H12         4.2941   -0.0118    1.9163 H         1 <0>         0.0954
     41 H13         3.4252   -1.5652    1.9176 H         1 <0>         0.0956
     42 H14         9.0770   -3.6912    7.4532 H         1 <0>         0.2244
     43 H15        13.7237   -5.6924    5.9138 H         1 <0>         0.0671
     44 H16        12.5752   -5.0958    7.1358 H         1 <0>         0.0609
     45 H17        12.8659   -7.4630    7.2683 H         1 <0>         0.3867
     46 H18        13.8654   -4.3280    3.6300 H         1 <0>         0.3872
     47 H19        11.5021   -1.9890    2.7840 H         1 <0>         0.3906
     48 H20         3.8563   -0.7996    5.9585 H         1 <0>         0.4106
     49 H21         4.8609   -1.3565    7.1846 H         1 <0>         0.4204
@<TRIPOS>BOND
     1    1    6 ar
     2    1    2 ar
     3    1   33 1
     4    2    3 ar
     5    2   34 1
     6    3    4 ar
     7    3   35 1
     8    4    5 ar
     9    4    7 1
    10    5    6 ar
    11    5   36 1
    12    6   37 1
    13    7    8 1
    14    7   38 1
    15    7   39 1
    16    8    9 1
    17    8   40 1
    18    8   41 1
    19    9   10 1
    20   10   15 ar
    21   10   11 ar
    22   11   12 ar
    23   12   13 ar
    24   12   32 1
    25   13   18 1
    26   13   14 ar
    27   14   15 ar
    28   14   16 1
    29   16   17 1
    30   16   19 1
    31   17   18 2
    32   17   42 1
    33   19   20 1
    34   19   27 1
    35   19   21 1
    36   21   22 1
    37   21   23 1
    38   21   31 1
    39   23   24 1
    40   23   25 1
    41   23   30 1
    42   25   26 1
    43   25   27 1
    44   25   28 1
    45   28   29 1
    46   28   43 1
    47   28   44 1
    48   29   45 1
    49   30   46 1
    50   31   47 1
    51   32   48 1
    52   32   49 1
@<TRIPOS>MOLECULE
CHEMBL39503
   62    64     0     0     0
SMALL
USER_CHARGES

@<TRIPOS>ATOM
      1 C1         -0.0187    1.5258    0.0104 C.3       1 <0>        -0.1480
      2 C2          0.0021   -0.0041    0.0020 C.3       1 <0>        -0.1379
      3 C3          0.7421   -0.5109    1.2415 C.3       1 <0>         0.1445
      4 N1          0.7619   -1.9757    1.2335 N.am      1 <0>        -0.5957
      5 C4         -0.3297   -2.7272    1.8725 C.3       1 <0>         0.2820
      6 C5         -0.2131   -4.2736    1.8184 C.3       1 <0>         0.0902
      7 C6          1.0063   -4.8167    1.1023 C.2       1 <0>         0.5211
      8 O1          1.1794   -6.0126    1.0036 O.2       1 <0>        -0.4816
      9 N2          1.8936   -3.9541    0.5775 N.am      1 <0>        -0.5591
     10 C7          1.7719   -2.6269    0.6391 C.2       1 <0>         0.7023
     11 O2          2.6450   -1.9578    0.1221 O.2       1 <0>        -0.5514
     12 C8          3.0640   -4.5055   -0.1098 C.3       1 <0>         0.1031
     13 C9          2.7397   -4.7012   -1.5922 C.3       1 <0>        -0.1323
     14 C10         3.9620   -5.2771   -2.3099 C.3       1 <0>        -0.1477
     15 N3         -1.3807   -4.6685    1.0151 N.pl3     1 <0>        -0.7347
     16 C11        -2.0692   -3.5368    0.6629 C.2       1 <0>         0.4372
     17 N4         -1.5461   -2.4397    1.1017 N.2       1 <0>        -0.5639
     18 C12        -3.3046   -3.5686   -0.1500 C.ar      1 <0>        -0.0886
     19 C13        -3.8217   -4.7884   -0.5892 C.ar      1 <0>        -0.0463
     20 C14        -4.9726   -4.8143   -1.3463 C.ar      1 <0>        -0.1449
     21 C15        -5.6180   -3.6282   -1.6730 C.ar      1 <0>         0.1473
     22 C16        -5.1059   -2.4123   -1.2378 C.ar      1 <0>        -0.2151
     23 C17        -3.9590   -2.3794   -0.4748 C.ar      1 <0>        -0.0171
     24 O3         -6.7517   -3.6574   -2.4195 O.3       1 <0>        -0.2877
     25 C18        -7.3640   -2.4014   -2.7187 C.3       1 <0>         0.0405
     26 C19        -8.6005   -2.6304   -3.5491 C.2       1 <0>         0.5237
     27 O4         -8.9254   -3.7582   -3.8547 O.2       1 <0>        -0.4950
     28 N5         -9.3453   -1.5820   -3.9523 N.am      1 <0>        -0.7331
     29 C20       -10.5473   -1.8046   -4.7595 C.3       1 <0>         0.0930
     30 C21       -11.2029   -0.4598   -5.0799 C.3       1 <0>        -0.0193
     31 N6        -12.4082   -0.6831   -5.8893 N.4       1 <0>        -0.6319
     32 H1          1.0039    1.9031    0.0027 H         1 <0>         0.0549
     33 H2         -0.5459    1.8868   -0.8726 H         1 <0>         0.0546
     34 H3         -0.5289    1.8773    0.9072 H         1 <0>         0.0552
     35 H4         -1.0205   -0.3814    0.0098 H         1 <0>         0.0817
     36 H5          0.5123   -0.3556   -0.8948 H         1 <0>         0.0579
     37 H6          1.7647   -0.1336    1.2338 H         1 <0>         0.0885
     38 H7          0.2319   -0.1594    2.1383 H         1 <0>         0.0833
     39 H8         -0.4566   -2.3914    2.9017 H         1 <0>         0.1276
     40 H9         -0.2743   -4.6907    2.8235 H         1 <0>         0.1407
     41 H10         3.9025   -3.8164   -0.0092 H         1 <0>         0.1029
     42 H11         3.3273   -5.4655    0.3343 H         1 <0>         0.0968
     43 H12         1.9012   -5.3903   -1.6928 H         1 <0>         0.0613
     44 H13         2.4764   -3.7413   -2.0363 H         1 <0>         0.0665
     45 H14         4.2253   -6.2371   -1.8658 H         1 <0>         0.0586
     46 H15         3.7310   -5.4166   -3.3660 H         1 <0>         0.0602
     47 H16         4.8005   -4.5880   -2.2093 H         1 <0>         0.0604
     48 H17        -1.6222   -5.5767    0.7747 H         1 <0>         0.4262
     49 H18        -3.3200   -5.7108   -0.3363 H         1 <0>         0.1347
     50 H19        -5.3733   -5.7578   -1.6865 H         1 <0>         0.1422
     51 H20        -5.6098   -1.4921   -1.4942 H         1 <0>         0.1345
     52 H21        -3.5641   -1.4342   -0.1328 H         1 <0>         0.1461
     53 H22        -7.6376   -1.9002   -1.7902 H         1 <0>         0.1024
     54 H23        -6.6631   -1.7788   -3.2747 H         1 <0>         0.1021
     55 H24        -9.0854   -0.6799   -3.7079 H         1 <0>         0.4113
     56 H25       -10.2737   -2.3058   -5.6880 H         1 <0>         0.0930
     57 H26       -11.2482   -2.4272   -4.2035 H         1 <0>         0.0931
     58 H27       -11.4765    0.0413   -4.1514 H         1 <0>         0.1426
     59 H28       -10.5020    0.1628   -5.6359 H         1 <0>         0.1426
     60 H29       -12.1550   -1.1470   -6.7488 H         1 <0>         0.4398
     61 H30       -13.0571   -1.2594   -5.3746 H         1 <0>         0.4398
     62 H31       -12.8406    0.2038   -6.1006 H         1 <0>         0.4453
@<TRIPOS>BOND
     1    1    2 1
     2    1   32 1
     3    1   33 1
     4    1   34 1
     5    2    3 1
     6    2   35 1
     7    2   36 1
     8    3    4 1
     9    3   37 1
    10    3   38 1
    11    4   10 am
    12    4    5 1
    13    5   17 1
    14    5    6 1
    15    5   39 1
    16    6    7 1
    17    6   15 1
    18    6   40 1
    19    7    8 2
    20    7    9 am
    21    9   10 am
    22    9   12 1
    23   10   11 2
    24   12   13 1
    25   12   41 1
    26   12   42 1
    27   13   14 1
    28   13   43 1
    29   13   44 1
    30   14   45 1
    31   14   46 1
    32   14   47 1
    33   15   16 1
    34   15   48 1
    35   16   17 2
    36   16   18 1
    37   18   23 ar
    38   18   19 ar
    39   19   20 ar
    40   19   49 1
    41   20   21 ar
    42   20   50 1
    43   21   22 ar
    44   21   24 1
    45   22   23 ar
    46   22   51 1
    47   23   52 1
    48   24   25 1
    49   25   26 1
    50   25   53 1
    51   25   54 1
    52   26   27 2
    53   26   28 am
    54   28   29 1
    55   28   55 1
    56   29   30 1
    57   29   56 1
    58   29   57 1
    59   30   31 1
    60   30   58 1
    61   30   59 1
    62   31   60 1
    63   31   61 1
    64   31   62 1
@<TRIPOS>MOLECULE
CHEMBL183674
   38    41     0     0     0
SMALL
USER_CHARGES

@<TRIPOS>ATOM
      1 C1         -0.0162    1.3433    0.0094 C.2       1 <0>        -0.2171
      2 C2          1.3252    1.7744   -0.0011 C.2       1 <0>        -0.1489
      3 C3          2.0962    0.6548   -0.0144 C.2       1 <0>         0.0599
      4 O1          1.2797   -0.4166   -0.0124 O.3       1 <0>        -0.1546
      5 C4          0.0021   -0.0041    0.0020 C.2       1 <0>        -0.0170
      6 C5          3.5737    0.6193   -0.0287 C.2       1 <0>         0.3122
      7 N1          4.3193   -0.4866   -0.0471 N.2       1 <0>        -0.5030
      8 C6          5.6015   -0.1603   -0.0567 C.2       1 <0>         0.1986
      9 C7          6.7993   -0.9188   -0.0757 C.2       1 <0>         0.4715
     10 N2          7.9622   -0.3011   -0.0808 N.2       1 <0>        -0.4952
     11 C8          8.0347    1.0410   -0.0682 C.2       1 <0>         0.2878
     12 C9          6.9046    1.8048   -0.0497 C.2       1 <0>        -0.0098
     13 N3          5.6823    1.2048   -0.0439 N.pl3     1 <0>        -0.2270
     14 N4          4.3660    1.6803   -0.0311 N.2       1 <0>        -0.2924
     15 C10         9.3170    1.6784   -0.0737 C.1       1 <0>        -0.2119
     16 C11        10.3683    2.2010   -0.0782 C.1       1 <0>        -0.0244
     17 C12        11.6864    2.8561   -0.0839 C.3       1 <0>         0.1787
     18 C13        11.5012    4.3748   -0.0672 C.3       1 <0>         0.1744
     19 C14        11.1112    4.9629   -1.4335 C.3       1 <0>        -0.1872
     20 C15        12.0612    6.1294   -1.1144 C.3       1 <0>        -0.1171
     21 C16        12.8188    5.1575   -0.1944 C.3       1 <0>        -0.1756
     22 O2         10.6719    4.8208    1.0077 O.3       1 <0>        -0.8579
     23 O3         12.4020    2.4765   -1.2612 O.3       1 <0>        -0.5627
     24 N5          6.7464   -2.3038   -0.0885 N.pl3     1 <0>        -0.8112
     25 H1         -0.8931    1.9736    0.0252 H         1 <0>         0.1567
     26 H2          1.6736    2.7966    0.0008 H         1 <0>         0.1593
     27 H3         -0.8667   -0.6456    0.0074 H         1 <0>         0.2110
     28 H4          6.9792    2.8822   -0.0394 H         1 <0>         0.1847
     29 H5         12.2487    2.5490    0.7979 H         1 <0>         0.1125
     30 H6         11.4345    4.3553   -2.2788 H         1 <0>         0.0442
     31 H7         10.0640    5.2580   -1.4991 H         1 <0>         0.0474
     32 H8         12.6452    6.4640   -1.9718 H         1 <0>         0.0367
     33 H9         11.5810    6.9503   -0.5817 H         1 <0>         0.0675
     34 H10        13.1500    5.6098    0.7404 H         1 <0>         0.0471
     35 H11        13.6088    4.6031   -0.7009 H         1 <0>         0.0553
     36 H12        11.9592    2.7191   -2.0859 H         1 <0>         0.3683
     37 H13         5.8885   -2.7564   -0.0844 H         1 <0>         0.4199
     38 H14         7.5673   -2.8204   -0.1015 H         1 <0>         0.4193
@<TRIPOS>BOND
     1    1    5 2
     2    1    2 1
     3    1   25 1
     4    2    3 2
     5    2   26 1
     6    3    4 1
     7    3    6 1
     8    4    5 1
     9    5   27 1
    10    6   14 2
    11    6    7 1
    12    7    8 2
    13    8   13 1
    14    8    9 1
    15    9   10 2
    16    9   24 1
    17   10   11 1
    18   11   12 2
    19   11   15 1
    20   12   13 1
    21   12   28 1
    22   13   14 1
    23   15   16 3
    24   16   17 1
    25   17   18 1
    26   17   23 1
    27   17   29 1
    28   18   21 1
    29   18   19 1
    30   18   22 1
    31   19   20 1
    32   19   30 1
    33   19   31 1
    34   20   21 1
    35   20   32 1
    36   20   33 1
    37   21   34 1
    38   21   35 1
    39   23   36 1
    40   24   37 1
    41   24   38 1
@<TRIPOS>MOLECULE
CHEMBL8865
   59    62     0     0     0
SMALL
USER_CHARGES

@<TRIPOS>ATOM
      1 C1         -0.0187    1.5258    0.0104 C.3       1 <0>        -0.1478
      2 C2          0.0021   -0.0041    0.0020 C.3       1 <0>        -0.1382
      3 C3          0.7421   -0.5109    1.2415 C.3       1 <0>         0.1175
      4 N1          0.7619   -1.9757    1.2335 N.am      1 <0>        -0.5082
      5 C4          1.8058   -2.6504    0.6192 C.2       1 <0>         0.3291
      6 C5          1.8004   -4.0416    0.6259 C.2       1 <0>        -0.1315
      7 C6          0.7363   -4.7219    1.2550 C.2       1 <0>         0.5931
      8 O1          0.7094   -5.9396    1.2744 O.2       1 <0>        -0.5053
      9 N2         -0.2508   -4.0085    1.8353 N.am      1 <0>        -0.5474
     10 C7         -0.2306   -2.6645    1.8273 C.2       1 <0>         0.7076
     11 O2         -1.1350   -2.0553    2.3653 O.2       1 <0>        -0.5233
     12 C8         -1.3583   -4.7093    2.4900 C.3       1 <0>         0.1131
     13 C9         -1.0111   -4.9501    3.9605 C.3       1 <0>        -0.1382
     14 C10        -2.1677   -5.6820    4.6443 C.3       1 <0>        -0.1476
     15 N3          2.9398   -4.4408   -0.0455 N.pl3     1 <0>        -0.5069
     16 C11         3.5873   -3.3067   -0.4304 C.2       1 <0>         0.3169
     17 N4          2.9013   -2.2553   -0.0282 N.2       1 <0>        -0.4688
     18 H1          3.2241   -5.3534   -0.2104 H         1 <0>         0.4388
     19 C12         4.8602   -3.2615   -1.1807 C.ar      1 <0>         0.0365
     20 C13         5.4942   -4.4466   -1.5577 C.ar      1 <0>        -0.1211
     21 C14         6.6816   -4.3973   -2.2582 C.ar      1 <0>        -0.0048
     22 C15         7.2444   -3.1768   -2.5868 C.ar      1 <0>        -0.6916
     23 C16         6.6212   -1.9985   -2.2162 C.ar      1 <0>        -0.0161
     24 C17         5.4305   -2.0336   -1.5204 C.ar      1 <0>        -0.0864
     25 S1          8.7619   -3.1230   -3.4807 S.o2      1 <0>         2.6737
     26 O3          9.3598   -1.8670   -3.1905 O.2       1 <0>        -0.9391
     27 O4          9.4227   -4.3565   -3.2337 O.2       1 <0>        -0.9100
     28 O5          8.4114   -3.1061   -4.9617 O.3       1 <0>        -0.6553
     29 C18         7.9413   -1.9105   -5.4048 C.ar      1 <0>         0.1158
     30 C19         6.5810   -1.6408   -5.3649 C.ar      1 <0>        -0.1231
     31 C20         6.1056   -0.4245   -5.8155 C.ar      1 <0>        -0.0355
     32 C21         6.9843    0.5236   -6.3061 C.ar      1 <0>        -0.0337
     33 C22         8.3404    0.2571   -6.3474 C.ar      1 <0>        -0.0336
     34 C23         8.8214   -0.9554   -5.8927 C.ar      1 <0>        -0.0912
     35 N5          6.4723    1.8259   -6.7883 N.pl3     1 <0>         0.0284
     36 O6          5.2867    2.0599   -6.7529 O.2       1 <0>        -0.1447
     37 O7          7.2397    2.6557   -7.2174 O.3       1 <0>        -0.1428
     38 H2          1.0039    1.9031    0.0027 H         1 <0>         0.0591
     39 H3         -0.5459    1.8868   -0.8726 H         1 <0>         0.0620
     40 H4         -0.5289    1.8773    0.9072 H         1 <0>         0.0595
     41 H5         -1.0205   -0.3814    0.0098 H         1 <0>         0.0687
     42 H6          0.5123   -0.3556   -0.8948 H         1 <0>         0.0676
     43 H7          1.7647   -0.1336    1.2338 H         1 <0>         0.0993
     44 H8          0.2319   -0.1594    2.1383 H         1 <0>         0.1024
     45 H9         -2.2615   -4.1026    2.4246 H         1 <0>         0.1049
     46 H10        -1.5263   -5.6657    1.9950 H         1 <0>         0.1027
     47 H11        -0.1079   -5.5568    4.0260 H         1 <0>         0.0673
     48 H12        -0.8431   -3.9937    4.4555 H         1 <0>         0.0699
     49 H13        -3.0709   -5.0754    4.5789 H         1 <0>         0.0604
     50 H14        -2.3357   -6.6385    4.1493 H         1 <0>         0.0592
     51 H15        -1.9204   -5.8536    5.6919 H         1 <0>         0.0621
     52 H16         5.0562   -5.3999   -1.3012 H         1 <0>         0.1383
     53 H17         7.1731   -5.3135   -2.5505 H         1 <0>         0.1549
     54 H18         7.0658   -1.0491   -2.4757 H         1 <0>         0.1508
     55 H19         4.9429   -1.1131   -1.2352 H         1 <0>         0.1564
     56 H20         5.8943   -2.3812   -4.9821 H         1 <0>         0.1642
     57 H21         5.0468   -0.2142   -5.7849 H         1 <0>         0.1713
     58 H22         9.0247    0.9992   -6.7314 H         1 <0>         0.1729
     59 H23         9.8811   -1.1615   -5.9210 H         1 <0>         0.1678
@<TRIPOS>BOND
     1    1    2 1
     2    1   38 1
     3    1   39 1
     4    1   40 1
     5    2    3 1
     6    2   41 1
     7    2   42 1
     8    3   43 1
     9    3   44 1
    10    3    4 1
    11    4    5 1
    12    4   10 am
    13    5   17 1
    14    5    6 2
    15    6    7 1
    16    6   15 1
    17    7    9 am
    18    7    8 2
    19    9   10 am
    20    9   12 1
    21   10   11 2
    22   12   13 1
    23   12   45 1
    24   12   46 1
    25   13   14 1
    26   13   47 1
    27   13   48 1
    28   14   49 1
    29   14   50 1
    30   14   51 1
    31   15   18 1
    32   15   16 1
    33   16   19 1
    34   16   17 2
    35   19   24 ar
    36   19   20 ar
    37   20   21 ar
    38   20   52 1
    39   21   22 ar
    40   21   53 1
    41   22   23 ar
    42   22   25 1
    43   23   24 ar
    44   23   54 1
    45   24   55 1
    46   25   26 2
    47   25   27 2
    48   25   28 1
    49   28   29 1
    50   29   34 ar
    51   29   30 ar
    52   30   31 ar
    53   30   56 1
    54   31   32 ar
    55   31   57 1
    56   32   33 ar
    57   32   35 1
    58   33   34 ar
    59   33   58 1
    60   34   59 1
    61   35   36 2
    62   35   37 1
@<TRIPOS>MOLECULE
CHEMBL601628
   44    46     0     0     0
SMALL
USER_CHARGES

@<TRIPOS>ATOM
      1 C1         -0.8028    1.5152    0.5701 C.3       1 <0>        -0.1536
      2 C2         -0.8077   -0.0148    0.5827 C.3       1 <0>        -0.1221
      3 C3          0.1458   -0.5189    1.6679 C.3       1 <0>        -0.1332
      4 C4          0.1410   -2.0488    1.6805 C.3       1 <0>         0.1174
      5 N1          1.0540   -2.5315    2.7196 N.am      1 <0>        -0.7252
      6 C5          1.2128   -3.8555    2.9150 C.2       1 <0>         0.5638
      7 O1          0.5985   -4.6492    2.2291 O.2       1 <0>        -0.5280
      8 C6          2.1334   -4.3422    3.9627 C.ar      1 <0>        -0.1399
      9 C7          2.7434   -3.4383    4.8240 C.ar      1 <0>        -0.0920
     10 C8          3.6140   -3.8885    5.8161 C.ar      1 <0>         0.2182
     11 C9          3.8784   -5.2560    5.9506 C.ar      1 <0>        -0.1423
     12 C10         3.2632   -6.1791    5.0812 C.ar      1 <0>        -0.1686
     13 C11         2.3864   -5.7219    4.0903 C.ar      1 <0>         0.2744
     14 N2          1.7753   -6.6200    3.2378 N.pl3     1 <0>        -0.8410
     15 C12         3.5383   -7.6181    5.2182 C.2       1 <0>         0.4405
     16 O2          3.0070   -8.4135    4.4673 O.2       1 <0>        -0.4410
     17 C13         4.4612   -8.0958    6.2688 C.ar      1 <0>        -0.1135
     18 C14         4.7276   -9.4555    6.4048 C.ar      1 <0>        -0.0712
     19 C15         5.5933   -9.8931    7.3910 C.ar      1 <0>        -0.0984
     20 C16         6.1974   -8.9882    8.2454 C.ar      1 <0>        -0.1013
     21 C17         5.9438   -7.6340    8.1247 C.ar      1 <0>        -0.0697
     22 C18         5.0757   -7.1760    7.1369 C.ar      1 <0>        -0.1189
     23 C19         4.7992   -5.7313    6.9993 C.2       1 <0>         0.4427
     24 O3          5.3305   -4.9356    7.7494 O.2       1 <0>        -0.4454
     25 N3          4.2194   -2.9786    6.6713 N.pl3     1 <0>        -0.8617
     26 H1          0.2055    1.8736    0.3629 H         1 <0>         0.0548
     27 H2         -1.4821    1.8743   -0.2031 H         1 <0>         0.0571
     28 H3         -1.1284    1.8876    1.5414 H         1 <0>         0.0547
     29 H4         -1.8160   -0.3732    0.7899 H         1 <0>         0.0660
     30 H5         -0.4821   -0.3872   -0.3886 H         1 <0>         0.0660
     31 H6          1.1541   -0.1604    1.4607 H         1 <0>         0.0701
     32 H7         -0.1798   -0.1465    2.6392 H         1 <0>         0.0699
     33 H8         -0.8673   -2.4072    1.8877 H         1 <0>         0.0711
     34 H9          0.4665   -2.4212    0.7092 H         1 <0>         0.0711
     35 H10         1.5441   -1.8982    3.2669 H         1 <0>         0.4001
     36 H11         2.5427   -2.3818    4.7244 H         1 <0>         0.1380
     37 H12         1.6333   -6.3859    2.3073 H         1 <0>         0.4100
     38 H13         1.4881   -7.4851    3.5695 H         1 <0>         0.4082
     39 H14         4.2589  -10.1675    5.7417 H         1 <0>         0.1435
     40 H15         5.7986  -10.9483    7.4948 H         1 <0>         0.1377
     41 H16         6.8713   -9.3416    9.0118 H         1 <0>         0.1376
     42 H17         6.4182   -6.9329    8.7955 H         1 <0>         0.1430
     43 H18         3.7988   -2.1219    6.8446 H         1 <0>         0.3979
     44 H19         5.0633   -3.1993    7.0956 H         1 <0>         0.4132
@<TRIPOS>BOND
     1    1    2 1
     2    1   26 1
     3    1   27 1
     4    1   28 1
     5    2    3 1
     6    2   29 1
     7    2   30 1
     8    3    4 1
     9    3   31 1
    10    3   32 1
    11    4    5 1
    12    4   33 1
    13    4   34 1
    14    5    6 am
    15    5   35 1
    16    6    7 2
    17    6    8 1
    18    8   13 ar
    19    8    9 ar
    20    9   10 ar
    21    9   36 1
    22   10   11 ar
    23   10   25 1
    24   11   23 1
    25   11   12 ar
    26   12   13 ar
    27   12   15 1
    28   13   14 1
    29   14   37 1
    30   14   38 1
    31   15   16 2
    32   15   17 1
    33   17   22 ar
    34   17   18 ar
    35   18   19 ar
    36   18   39 1
    37   19   20 ar
    38   19   40 1
    39   20   21 ar
    40   20   41 1
    41   21   22 ar
    42   21   42 1
    43   22   23 1
    44   23   24 2
    45   25   43 1
    46   25   44 1
@<TRIPOS>MOLECULE
CHEMBL253528
   56    59     0     0     0
SMALL
USER_CHARGES

@<TRIPOS>ATOM
      1 C1         -0.0174    1.5029    0.0163 C.3       1 <0>        -0.0789
      2 C2          0.0028   -0.0040    0.0067 C.2       1 <0>         0.0223
      3 C3         -1.0824   -0.8047    0.0055 C.2       1 <0>        -0.2241
      4 C4         -0.6156   -2.1325   -0.0046 C.2       1 <0>        -0.1084
      5 C5          0.7438   -2.0698   -0.0090 C.2       1 <0>         0.0065
      6 O1          1.1033   -0.7711   -0.0079 O.3       1 <0>        -0.1515
      7 C6          1.6639   -3.2233   -0.0197 C.ar      1 <0>         0.4645
      8 N1          1.1612   -4.4528   -0.0311 N.ar      1 <0>        -0.5057
      9 C7          1.9607   -5.5134   -0.0409 C.ar      1 <0>         0.4393
     10 C8          3.3411   -5.3227   -0.0390 C.ar      1 <0>        -0.2594
     11 C9          3.8312   -4.0210   -0.0269 C.ar      1 <0>         0.4535
     12 N2          2.9741   -3.0063   -0.0230 N.ar      1 <0>        -0.5439
     13 N3          5.2072   -3.7839   -0.0245 N.pl3     1 <0>        -0.3334
     14 C10         5.8270   -2.6608   -0.4732 C.2       1 <0>         0.1172
     15 C11         7.1571   -2.8288   -0.2951 C.2       1 <0>        -0.2606
     16 C12         7.3603   -4.0894    0.2785 C.2       1 <0>         0.1024
     17 N4          6.1949   -4.6588    0.4463 N.2       1 <0>        -0.2849
     18 C13         8.6944   -4.6863    0.6461 C.3       1 <0>        -0.0762
     19 C14         5.1541   -1.4481   -1.0627 C.3       1 <0>        -0.0891
     20 N5          1.4270   -6.7978   -0.0524 N.am      1 <0>        -0.6493
     21 C15         0.0948   -6.9750    0.0491 C.2       1 <0>         0.5072
     22 O2         -0.6457   -6.0146    0.0576 O.2       1 <0>        -0.4316
     23 C16        -0.4747   -8.3664    0.1520 C.3       1 <0>         0.0433
     24 O3         -1.8985   -8.2925    0.2486 O.3       1 <0>        -0.2819
     25 C17        -2.5712   -9.4672    0.3490 C.ar      1 <0>         0.1759
     26 C18        -1.8895  -10.6815    0.3620 C.ar      1 <0>        -0.2724
     27 C19        -2.6095  -11.8539    0.4659 C.ar      1 <0>         0.1720
     28 N6         -3.9262  -11.8334    0.5517 N.ar      1 <0>        -0.5073
     29 C20        -4.6074  -10.7033    0.5427 C.ar      1 <0>         0.1711
     30 C21        -3.9602   -9.4885    0.4475 C.ar      1 <0>        -0.2071
     31 C22        -6.1106  -10.7397    0.6435 C.3       1 <0>        -0.1062
     32 C23        -1.8833  -13.1743    0.4810 C.3       1 <0>        -0.1072
     33 H1          1.0052    1.8801    0.0100 H         1 <0>         0.0794
     34 H2         -0.5437    1.8648   -0.8670 H         1 <0>         0.0914
     35 H3         -0.5285    1.8536    0.9129 H         1 <0>         0.0913
     36 H4         -2.1146   -0.4871    0.0115 H         1 <0>         0.1576
     37 H5         -1.2194   -3.0278   -0.0078 H         1 <0>         0.1665
     38 H6          4.0152   -6.1665   -0.0464 H         1 <0>         0.1629
     39 H7          7.9270   -2.1159   -0.5509 H         1 <0>         0.1597
     40 H8          8.9433   -4.4154    1.6721 H         1 <0>         0.0836
     41 H9          8.6432   -5.7716    0.5591 H         1 <0>         0.0772
     42 H10         9.4615   -4.3036   -0.0271 H         1 <0>         0.0843
     43 H11         4.9184   -0.7408   -0.2675 H         1 <0>         0.0888
     44 H12         5.8224   -0.9758   -1.7828 H         1 <0>         0.0837
     45 H13         4.2348   -1.7505   -1.5642 H         1 <0>         0.0785
     46 H14         2.0136   -7.5661   -0.1335 H         1 <0>         0.4267
     47 H15        -0.1999   -8.9380   -0.7345 H         1 <0>         0.1029
     48 H16        -0.0753   -8.8577    1.0393 H         1 <0>         0.1035
     49 H17        -0.8121  -10.7053    0.2914 H         1 <0>         0.1387
     50 H18        -4.5233   -8.5669    0.4450 H         1 <0>         0.1448
     51 H19        -6.4054  -10.6996    1.6921 H         1 <0>         0.0831
     52 H20        -6.5310   -9.8842    0.1149 H         1 <0>         0.0788
     53 H21        -6.4825  -11.6616    0.1965 H         1 <0>         0.0815
     54 H22        -1.6403  -13.4436    1.5088 H         1 <0>         0.0819
     55 H23        -2.5197  -13.9440    0.0445 H         1 <0>         0.0813
     56 H24        -0.9645  -13.0903   -0.0995 H         1 <0>         0.0756
@<TRIPOS>BOND
     1    1    2 1
     2    1   33 1
     3    1   34 1
     4    1   35 1
     5    2    6 1
     6    2    3 2
     7    3    4 1
     8    3   36 1
     9    4    5 2
    10    4   37 1
    11    5    6 1
    12    5    7 1
    13    7   12 ar
    14    7    8 ar
    15    8    9 ar
    16    9   10 ar
    17    9   20 1
    18   10   11 ar
    19   10   38 1
    20   11   12 ar
    21   11   13 1
    22   13   17 1
    23   13   14 1
    24   14   15 2
    25   14   19 1
    26   15   16 1
    27   15   39 1
    28   16   17 2
    29   16   18 1
    30   18   40 1
    31   18   41 1
    32   18   42 1
    33   19   43 1
    34   19   44 1
    35   19   45 1
    36   20   21 am
    37   20   46 1
    38   21   22 2
    39   21   23 1
    40   23   24 1
    41   23   47 1
    42   23   48 1
    43   24   25 1
    44   25   30 ar
    45   25   26 ar
    46   26   27 ar
    47   26   49 1
    48   27   28 ar
    49   27   32 1
    50   28   29 ar
    51   29   30 ar
    52   29   31 1
    53   30   50 1
    54   31   51 1
    55   31   52 1
    56   31   53 1
    57   32   54 1
    58   32   55 1
    59   32   56 1
@<TRIPOS>MOLECULE
CHEMBL267200
   35    38     0     0     0
SMALL
USER_CHARGES

@<TRIPOS>ATOM
      1 C1         -0.0167    1.3780    0.0096 C.ar      1 <0>        -0.1365
      2 C2          1.1706    2.0866    0.0021 C.ar      1 <0>        -0.0789
      3 C3          2.3773    1.4137   -0.0131 C.ar      1 <0>        -0.1627
      4 C4          2.3974    0.0291   -0.0207 C.ar      1 <0>         0.1236
      5 C5          1.2080   -0.6793   -0.0132 C.ar      1 <0>        -0.1587
      6 C6          0.0021   -0.0041    0.0020 C.ar      1 <0>        -0.0628
      7 C7          1.2281   -2.1862   -0.0220 C.3       1 <0>         0.1875
      8 N1          1.3684   -2.6807    1.3499 N.pl3     1 <0>        -0.3823
      9 C8          2.5449   -2.9301    1.9933 C.ar      1 <0>         0.3934
     10 C9          2.2069   -3.3874    3.2840 C.ar      1 <0>        -0.3082
     11 C10         0.7978   -3.3937    3.3639 C.2       1 <0>         0.1251
     12 N2          0.3177   -2.9730    2.2285 N.2       1 <0>        -0.2509
     13 C11         3.2505   -3.7219    4.1707 C.ar      1 <0>         0.3818
     14 N3          4.5048   -3.5911    3.7503 N.ar      1 <0>        -0.5687
     15 C12         4.7760   -3.1566    2.5262 C.ar      1 <0>         0.6148
     16 N4          3.8293   -2.8313    1.6619 N.ar      1 <0>        -0.5804
     17 N5          6.0998   -3.0390    2.1394 N.pl3     1 <0>        -0.8120
     18 C13         2.9566   -4.2070    5.5383 C.2       1 <0>         0.1045
     19 C14         3.7992   -5.0114    6.3325 C.2       1 <0>        -0.2240
     20 C15         3.1717   -5.2345    7.5069 C.2       1 <0>         0.0565
     21 N6          1.9785   -4.6020    7.4701 N.pl3     1 <0>        -0.4626
     22 H1          1.3180   -4.5914    8.1803 H         1 <0>         0.4452
     23 N7          1.8634   -3.9588    6.2311 N.2       1 <0>        -0.2568
     24 F1          3.5766   -0.6299   -0.0360 F         1 <0>        -0.1201
     25 H2         -0.9594    1.9048    0.0260 H         1 <0>         0.1325
     26 H3          1.1547    3.1665    0.0077 H         1 <0>         0.1342
     27 H4          3.3046    1.9675   -0.0193 H         1 <0>         0.1363
     28 H5         -0.9259   -0.5565    0.0083 H         1 <0>         0.1359
     29 H6          0.2975   -2.5595   -0.4494 H         1 <0>         0.1105
     30 H7          2.0689   -2.5348   -0.6216 H         1 <0>         0.1073
     31 H8          0.2159   -3.6925    4.2232 H         1 <0>         0.1990
     32 H9          6.8087   -3.2724    2.7590 H         1 <0>         0.4178
     33 H10         6.3186   -2.7231    1.2487 H         1 <0>         0.4173
     34 H11         4.7735   -5.3830    6.0514 H         1 <0>         0.1579
     35 H12         3.5562   -5.8167    8.3313 H         1 <0>         0.1846
@<TRIPOS>BOND
     1    1    6 ar
     2    1    2 ar
     3    1   25 1
     4    2    3 ar
     5    2   26 1
     6    3    4 ar
     7    3   27 1
     8    4    5 ar
     9    4   24 1
    10    5    6 ar
    11    5    7 1
    12    6   28 1
    13    7    8 1
    14    7   29 1
    15    7   30 1
    16    8   12 1
    17    8    9 1
    18    9   16 ar
    19    9   10 ar
    20   10   11 1
    21   10   13 ar
    22   11   12 2
    23   11   31 1
    24   13   14 ar
    25   13   18 1
    26   14   15 ar
    27   15   16 ar
    28   15   17 1
    29   17   32 1
    30   17   33 1
    31   18   23 2
    32   18   19 1
    33   19   20 2
    34   19   34 1
    35   20   21 1
    36   20   35 1
    37   21   22 1
    38   21   23 1
@<TRIPOS>MOLECULE
CHEMBL409711
   57    60     0     0     0
SMALL
USER_CHARGES

@<TRIPOS>ATOM
      1 C1         -0.0270    1.5052    0.0152 C.3       1 <0>        -0.0779
      2 C2         -0.0058   -0.0016    0.0059 C.2       1 <0>         0.1073
      3 C3         -0.0010   -0.8138   -1.1343 C.2       1 <0>        -0.2590
      4 C4          0.0195   -2.1035   -0.7278 C.2       1 <0>         0.1210
      5 N1          0.0273   -2.1062    0.6311 N.pl3     1 <0>        -0.3376
      6 N2          0.0168   -0.7731    1.0618 N.2       1 <0>        -0.2894
      7 C5          0.0479   -3.2358    1.4515 C.ar      1 <0>         0.4534
      8 C6          0.5560   -3.1585    2.7443 C.ar      1 <0>        -0.2536
      9 C7          0.5563   -4.3110    3.5266 C.ar      1 <0>         0.4257
     10 N3          0.0745   -5.4391    3.0159 N.ar      1 <0>        -0.5110
     11 C8         -0.4016   -5.4750    1.7799 C.ar      1 <0>         0.4283
     12 N4         -0.4225   -4.3968    1.0098 N.ar      1 <0>        -0.5167
     13 C9         -0.9310   -6.7547    1.2461 C.ar      1 <0>         0.1613
     14 C10        -0.9255   -7.8927    2.0490 C.ar      1 <0>        -0.1133
     15 C11        -1.4227   -9.0796    1.5374 C.ar      1 <0>        -0.0860
     16 C12        -1.9092   -9.0880    0.2383 C.ar      1 <0>        -0.1479
     17 C13        -1.8840   -7.9201   -0.5029 C.ar      1 <0>         0.0996
     18 N5         -1.4104   -6.8037    0.0104 N.ar      1 <0>        -0.4398
     19 N6          1.0549   -4.2815    4.8249 N.am      1 <0>        -0.6514
     20 C14         0.9578   -5.3734    5.6091 C.2       1 <0>         0.5084
     21 O1          0.5203   -6.4092    5.1548 O.2       1 <0>        -0.4509
     22 C15         1.3928   -5.3071    7.0504 C.3       1 <0>         0.0373
     23 N7          1.1881   -6.6163    7.6844 N.3       1 <0>        -0.5230
     24 C16        -0.2425   -6.9416    7.7711 C.3       1 <0>         0.0172
     25 C17        -0.4097   -8.3350    8.3813 C.3       1 <0>         0.0006
     26 N8          0.1977   -8.3602    9.7184 N.4       1 <0>        -0.3894
     27 C18         1.6312   -8.0577    9.6127 C.3       1 <0>        -0.0013
     28 C19         1.8153   -6.6621    9.0128 C.3       1 <0>         0.0265
     29 C20         0.0212   -9.6927   10.3110 C.3       1 <0>        -0.0459
     30 C21         0.0307   -3.3178   -1.6203 C.3       1 <0>        -0.1121
     31 H1          0.9954    1.8830    0.0064 H         1 <0>         0.0850
     32 H2         -0.5554    1.8666   -0.8670 H         1 <0>         0.0858
     33 H3         -0.5362    1.8560    0.9128 H         1 <0>         0.0772
     34 H4         -0.0117   -0.4707   -2.1583 H         1 <0>         0.1609
     35 H5          0.9414   -2.2271    3.1320 H         1 <0>         0.1615
     36 H6         -0.5385   -7.8501    3.0564 H         1 <0>         0.1541
     37 H7         -1.4311   -9.9784    2.1361 H         1 <0>         0.1406
     38 H8         -2.3034   -9.9975   -0.1904 H         1 <0>         0.1425
     39 H9         -2.2619   -7.9229   -1.5146 H         1 <0>         0.1661
     40 H10         1.4724   -3.4751    5.1659 H         1 <0>         0.4260
     41 H11         2.4487   -5.0408    7.0993 H         1 <0>         0.1239
     42 H12         0.8036   -4.5539    7.5735 H         1 <0>         0.0834
     43 H13        -0.7451   -6.2066    8.3998 H         1 <0>         0.0586
     44 H14        -0.6800   -6.9268    6.7729 H         1 <0>         0.1393
     45 H15        -1.4706   -8.5724    8.4596 H         1 <0>         0.1364
     46 H16         0.0814   -9.0714    7.7452 H         1 <0>         0.1403
     47 H17         2.0833   -8.0896   10.6040 H         1 <0>         0.1380
     48 H18         2.1118   -8.7956    8.9703 H         1 <0>         0.1393
     49 H19         2.8792   -6.4433    8.9204 H         1 <0>         0.1264
     50 H20         1.3466   -5.9225    9.6619 H         1 <0>         0.0639
     51 H21         0.5032  -10.4384    9.6787 H         1 <0>         0.1236
     52 H22         0.4719   -9.7117   11.3033 H         1 <0>         0.1244
     53 H23        -1.0425   -9.9169   10.3908 H         1 <0>         0.1244
     54 H24         1.0609   -3.5966   -1.8416 H         1 <0>         0.0770
     55 H25        -0.4689   -4.1445   -1.1152 H         1 <0>         0.1114
     56 H26        -0.4919   -3.0906   -2.5495 H         1 <0>         0.0872
     57 H27        -0.2491   -7.6704   10.3037 H         1 <0>         0.4219
@<TRIPOS>BOND
     1    1    2 1
     2    1   31 1
     3    1   32 1
     4    1   33 1
     5    2    6 2
     6    2    3 1
     7    3    4 2
     8    3   34 1
     9    4    5 1
    10    4   30 1
    11    5    6 1
    12    5    7 1
    13    7   12 ar
    14    7    8 ar
    15    8    9 ar
    16    8   35 1
    17    9   10 ar
    18    9   19 1
    19   10   11 ar
    20   11   12 ar
    21   11   13 1
    22   13   18 ar
    23   13   14 ar
    24   14   15 ar
    25   14   36 1
    26   15   16 ar
    27   15   37 1
    28   16   17 ar
    29   16   38 1
    30   17   18 ar
    31   17   39 1
    32   19   20 am
    33   19   40 1
    34   20   21 2
    35   20   22 1
    36   22   23 1
    37   22   41 1
    38   22   42 1
    39   23   28 1
    40   23   24 1
    41   24   25 1
    42   24   43 1
    43   24   44 1
    44   25   26 1
    45   25   45 1
    46   25   46 1
    47   26   27 1
    48   26   29 1
    49   26   57 1
    50   27   28 1
    51   27   47 1
    52   27   48 1
    53   28   49 1
    54   28   50 1
    55   29   51 1
    56   29   52 1
    57   29   53 1
    58   30   54 1
    59   30   55 1
    60   30   56 1
@<TRIPOS>MOLECULE
CHEMBL575197
   53    58     0     0     0
SMALL
USER_CHARGES

@<TRIPOS>ATOM
      1 C1         -0.0167    1.3781    0.0096 C.ar      1 <0>        -0.1180
      2 C2          1.1709    2.0855    0.0021 C.ar      1 <0>        -0.1180
      3 C3          2.3773    1.4107   -0.0130 C.ar      1 <0>        -0.1141
      4 C4          2.3960    0.0285   -0.0201 C.ar      1 <0>        -0.0893
      5 C5          1.2084   -0.6789   -0.0117 C.ar      1 <0>        -0.1109
      6 C6          0.0021   -0.0041    0.0020 C.ar      1 <0>        -0.1172
      7 C7          3.7112   -0.7071   -0.0376 C.3       1 <0>        -0.0924
      8 C8          4.1714   -0.9633    1.3989 C.3       1 <0>         0.1338
      9 N1          5.4498   -1.6784    1.3820 N.pl3     1 <0>        -0.3364
     10 C9          6.5698   -1.2759    2.0073 C.2       1 <0>         0.1593
     11 C10         7.5464   -2.2049    1.7572 C.2       1 <0>        -0.2668
     12 C11         6.9384   -3.2424    0.9089 C.2       1 <0>         0.3024
     13 N2          5.6880   -2.8871    0.7171 N.2       1 <0>        -0.2478
     14 N3          7.7095   -4.2904    0.5160 N.2       1 <0>        -0.4473
     15 C12         8.9599   -4.3961    0.8692 C.2       1 <0>         0.6523
     16 N4          9.6091   -3.4825    1.6550 N.pl3     1 <0>        -0.3753
     17 C13         8.9577   -2.3736    2.1253 C.2       1 <0>         0.4112
     18 N5          9.8084   -1.6756    2.8435 N.2       1 <0>        -0.5117
     19 C14        10.9978   -2.2927    2.8583 C.2       1 <0>         0.3455
     20 N6         10.9203   -3.4001    2.1467 N.2       1 <0>        -0.2915
     21 C15        12.2042   -1.8098    3.5620 C.2       1 <0>         0.0428
     22 C16        13.4170   -2.4240    3.5797 C.2       1 <0>        -0.1366
     23 C17        14.2673   -1.6207    4.3652 C.2       1 <0>        -0.2191
     24 C18        13.5393   -0.5669    4.7838 C.2       1 <0>        -0.0049
     25 O1         12.2949   -0.6818    4.2926 O.3       1 <0>        -0.1533
     26 N7          9.6709   -5.4944    0.4250 N.am      1 <0>        -0.6453
     27 C19         9.0693   -6.4180   -0.3505 C.2       1 <0>         0.5061
     28 O2          7.9040   -6.2852   -0.6584 O.2       1 <0>        -0.4283
     29 C20         9.8449   -7.6158   -0.8350 C.3       1 <0>        -0.0458
     30 C21         8.9489   -8.4874   -1.6768 C.2       1 <0>        -0.1442
     31 C22         8.7338   -8.4502   -3.0146 C.2       1 <0>        -0.1346
     32 C23         7.8583   -9.3592   -3.5783 C.2       1 <0>        -0.1587
     33 C24         7.2407  -10.2611   -2.7767 C.2       1 <0>        -0.1666
     34 S1          7.9014   -9.8421   -1.1719 S.3       1 <0>         0.0531
     35 H1         -0.9591    1.9053    0.0259 H         1 <0>         0.1231
     36 H2          1.1563    3.1654    0.0076 H         1 <0>         0.1238
     37 H3          3.3051    1.9634   -0.0196 H         1 <0>         0.1228
     38 H4          1.2231   -1.7588   -0.0176 H         1 <0>         0.1247
     39 H5         -0.9258   -0.5567    0.0082 H         1 <0>         0.1241
     40 H6          3.5884   -1.6586   -0.5549 H         1 <0>         0.0933
     41 H7          4.4573   -0.1052   -0.5563 H         1 <0>         0.0817
     42 H8          4.2941   -0.0118    1.9163 H         1 <0>         0.1102
     43 H9          3.4252   -1.5652    1.9176 H         1 <0>         0.1005
     44 H10         6.6806   -0.3801    2.6004 H         1 <0>         0.2007
     45 H11        13.6781   -3.3490    3.0872 H         1 <0>         0.1608
     46 H12        15.3061   -1.8131    4.5893 H         1 <0>         0.1595
     47 H13        13.8981    0.2384    5.4077 H         1 <0>         0.2139
     48 H14        10.6031   -5.6006    0.6713 H         1 <0>         0.4311
     49 H15        10.6930   -7.2820   -1.4328 H         1 <0>         0.1255
     50 H16        10.2058   -8.1856    0.0213 H         1 <0>         0.1184
     51 H17         9.2387   -7.7209   -3.6308 H         1 <0>         0.1323
     52 H18         7.6689   -9.3508   -4.6415 H         1 <0>         0.1349
     53 H19         6.5352  -11.0349   -3.0409 H         1 <0>         0.1866
@<TRIPOS>BOND
     1    1    6 ar
     2    1    2 ar
     3    1   35 1
     4    2    3 ar
     5    2   36 1
     6    3    4 ar
     7    3   37 1
     8    4    5 ar
     9    4    7 1
    10    5    6 ar
    11    5   38 1
    12    6   39 1
    13    7    8 1
    14    7   40 1
    15    7   41 1
    16    8    9 1
    17    8   42 1
    18    8   43 1
    19    9   13 1
    20    9   10 1
    21   10   11 2
    22   10   44 1
    23   11   17 1
    24   11   12 1
    25   12   13 2
    26   12   14 1
    27   14   15 2
    28   15   16 1
    29   15   26 1
    30   16   20 1
    31   16   17 1
    32   17   18 2
    33   18   19 1
    34   19   20 2
    35   19   21 1
    36   21   25 1
    37   21   22 2
    38   22   23 1
    39   22   45 1
    40   23   24 2
    41   23   46 1
    42   24   25 1
    43   24   47 1
    44   26   27 am
    45   26   48 1
    46   27   28 2
    47   27   29 1
    48   29   30 1
    49   29   49 1
    50   29   50 1
    51   30   34 1
    52   30   31 2
    53   31   32 1
    54   31   51 1
    55   32   33 2
    56   32   52 1
    57   33   34 1
    58   33   53 1
@<TRIPOS>MOLECULE
CHEMBL481737
   43    46     0     0     0
SMALL
USER_CHARGES

@<TRIPOS>ATOM
      1 C1         -0.0173    1.4248    0.0099 C.3       1 <0>         0.0262
      2 O1          0.0021   -0.0041    0.0020 O.3       1 <0>        -0.3175
      3 C2         -1.2003   -0.6375    0.0101 C.ar      1 <0>         0.1290
      4 C3         -2.3746    0.1011    0.0195 C.ar      1 <0>        -0.2069
      5 C4         -3.5956   -0.5451    0.0272 C.ar      1 <0>        -0.0702
      6 C5         -3.6478   -1.9268    0.0260 C.ar      1 <0>        -0.1242
      7 C6         -2.4788   -2.6651    0.0172 C.ar      1 <0>        -0.0707
      8 C7         -1.2554   -2.0237    0.0032 C.ar      1 <0>        -0.1502
      9 C8         -4.9811   -2.6292    0.0350 C.3       1 <0>        -0.0755
     10 C9         -5.4428   -2.8652   -1.4045 C.3       1 <0>         0.0721
     11 O2         -6.7071   -3.5313   -1.3960 O.3       1 <0>        -0.2848
     12 C10        -7.2605   -3.8168   -2.6005 C.2       1 <0>         0.4035
     13 C11        -8.4823   -4.4536   -2.6617 C.2       1 <0>        -0.2606
     14 C12        -9.0292   -4.7350   -3.9261 C.2       1 <0>         0.3757
     15 N1        -10.1478   -5.3170   -4.3303 N.2       1 <0>        -0.5279
     16 C13       -10.1862   -5.3332   -5.6673 C.2       1 <0>         0.3594
     17 N2         -9.0948   -4.7629   -6.1436 N.2       1 <0>        -0.3253
     18 N3         -8.3249   -4.3647   -5.0435 N.pl3     1 <0>        -0.3725
     19 C14        -7.1236   -3.7388   -4.9114 C.2       1 <0>         0.6834
     20 N4         -6.6224   -3.4751   -3.7247 N.2       1 <0>        -0.5999
     21 N5         -6.4253   -3.3715   -6.0372 N.pl3     1 <0>        -0.8021
     22 C15       -11.2793   -5.9016   -6.4838 C.2       1 <0>         0.0361
     23 C16       -12.4099   -6.4866   -6.0070 C.2       1 <0>        -0.1259
     24 C17       -13.1667   -6.8808   -7.1282 C.2       1 <0>        -0.2191
     25 C18       -12.4679   -6.5206   -8.2226 C.2       1 <0>        -0.0078
     26 O3        -11.3308   -5.9246   -7.8296 O.3       1 <0>        -0.1608
     27 H1          1.0053    1.8021    0.0021 H         1 <0>         0.1017
     28 H2         -0.5445    1.7859   -0.8732 H         1 <0>         0.0562
     29 H3         -0.5275    1.7763    0.9067 H         1 <0>         0.0566
     30 H4         -2.3343    1.1803    0.0211 H         1 <0>         0.1295
     31 H5         -4.5101    0.0294    0.0345 H         1 <0>         0.1266
     32 H6         -2.5223   -3.7443    0.0166 H         1 <0>         0.1314
     33 H7         -0.3427   -2.6008   -0.0082 H         1 <0>         0.1325
     34 H8         -4.8840   -3.5865    0.5470 H         1 <0>         0.0857
     35 H9         -5.7136   -2.0117    0.5548 H         1 <0>         0.0848
     36 H10        -5.5399   -1.9079   -1.9165 H         1 <0>         0.0728
     37 H11        -4.7104   -3.4827   -1.9243 H         1 <0>         0.0737
     38 H12        -9.0069   -4.7300   -1.7590 H         1 <0>         0.1715
     39 H13        -6.7894   -3.5588   -6.9165 H         1 <0>         0.4268
     40 H14        -5.5683   -2.9250   -5.9522 H         1 <0>         0.4301
     41 H15       -12.6764   -6.6232   -4.9693 H         1 <0>         0.1636
     42 H16       -14.1253   -7.3781   -7.1132 H         1 <0>         0.1596
     43 H17       -12.7734   -6.6814   -9.2459 H         1 <0>         0.2132
@<TRIPOS>BOND
     1    1    2 1
     2    1   27 1
     3    1   28 1
     4    1   29 1
     5    2    3 1
     6    3    8 ar
     7    3    4 ar
     8    4    5 ar
     9    4   30 1
    10    5    6 ar
    11    5   31 1
    12    6    7 ar
    13    6    9 1
    14    7    8 ar
    15    7   32 1
    16    8   33 1
    17    9   10 1
    18    9   34 1
    19    9   35 1
    20   10   11 1
    21   10   36 1
    22   10   37 1
    23   11   12 1
    24   12   20 1
    25   12   13 2
    26   13   14 1
    27   13   38 1
    28   14   18 1
    29   14   15 2
    30   15   16 1
    31   16   17 2
    32   16   22 1
    33   17   18 1
    34   18   19 1
    35   19   20 2
    36   19   21 1
    37   21   39 1
    38   21   40 1
    39   22   26 1
    40   22   23 2
    41   23   24 1
    42   23   41 1
    43   24   25 2
    44   24   42 1
    45   25   26 1
    46   25   43 1
@<TRIPOS>MOLECULE
CHEMBL605265
   46    49     0     0     0
SMALL
USER_CHARGES

@<TRIPOS>ATOM
      1 C1         -0.0187    1.5258    0.0104 C.3       1 <0>        -0.1670
      2 C2          0.0021   -0.0041    0.0020 C.3       1 <0>         0.1127
      3 N1          0.6878   -0.4765   -1.2033 N.am      1 <0>        -0.7282
      4 C3          0.8268   -1.7986   -1.4250 C.2       1 <0>         0.4959
      5 O1          0.3843   -2.5972   -0.6267 O.2       1 <0>        -0.5066
      6 C4          1.5322   -2.2846   -2.6649 C.3       1 <0>         0.0429
      7 H1          2.5301   -1.8492   -2.7172 H         1 <0>         0.1290
      8 C5          0.7217   -1.8886   -3.9178 C.3       1 <0>         0.0517
      9 H2         -0.3249   -1.7189   -3.6651 H         1 <0>         0.0969
     10 C6          0.8760   -3.1431   -4.8202 C.3       1 <0>         0.0772
     11 H3          0.0208   -3.2552   -5.4867 H         1 <0>         0.1045
     12 C7          0.9061   -4.2690   -3.7562 C.3       1 <0>         0.3188
     13 O2          1.6263   -3.7137   -2.6418 O.3       1 <0>        -0.3323
     14 N2          1.6076   -5.4441   -4.2789 N.pl3     1 <0>        -0.4581
     15 C8          2.9233   -5.7483   -4.0911 C.2       1 <0>         0.2949
     16 N3          3.2128   -6.8648   -4.6947 N.2       1 <0>        -0.4644
     17 C9          2.1059   -7.3477   -5.3065 C.ar      1 <0>        -0.0871
     18 C10         1.0597   -6.4445   -5.0429 C.ar      1 <0>         0.3086
     19 N4         -0.1481   -6.6923   -5.5317 N.ar      1 <0>        -0.5295
     20 C11        -0.3719   -7.7807   -6.2594 C.ar      1 <0>         0.4858
     21 N5          0.5890   -8.6629   -6.5299 N.ar      1 <0>        -0.5669
     22 C12         1.8261   -8.4857   -6.0859 C.ar      1 <0>         0.5153
     23 N6          2.8178   -9.4081   -6.3708 N.pl3     1 <0>        -0.8124
     24 C13        -1.6895   -8.0136   -6.7697 C.1       1 <0>        -0.0094
     25 C14        -2.7697   -8.2045   -7.1881 C.1       1 <0>        -0.0288
     26 C15        -4.0872   -8.4374   -7.6984 C.2       1 <0>         0.1937
     27 N7         -5.1867   -7.7021   -7.5631 N.2       1 <0>        -0.4739
     28 C16        -6.3208   -8.0702   -8.1040 C.2       1 <0>         0.0253
     29 C17        -6.3873   -9.2268   -8.8213 C.2       1 <0>        -0.1906
     30 S1         -4.6949   -9.7914   -8.6957 S.3       1 <0>         0.0673
     31 O3          2.0984   -3.0988   -5.5591 O.3       1 <0>        -0.5337
     32 O4          1.2850   -0.7342   -4.5440 O.3       1 <0>        -0.5368
     33 H4          1.0039    1.9031    0.0027 H         1 <0>         0.0638
     34 H5         -0.5459    1.8868   -0.8726 H         1 <0>         0.0631
     35 H6         -0.5289    1.8773    0.9072 H         1 <0>         0.0783
     36 H7          0.5293   -0.3651    0.8851 H         1 <0>         0.0718
     37 H8         -1.0205   -0.3814    0.0098 H         1 <0>         0.0714
     38 H9          1.0417    0.1622   -1.8418 H         1 <0>         0.3971
     39 H10        -0.1080   -4.5346   -3.4576 H         1 <0>         0.1333
     40 H11         3.6225   -5.1508   -3.5249 H         1 <0>         0.2242
     41 H12         3.7169   -9.2737   -6.0323 H         1 <0>         0.4223
     42 H13         2.6138  -10.1889   -6.9089 H         1 <0>         0.4129
     43 H14        -7.2022   -7.4582   -7.9815 H         1 <0>         0.1768
     44 H15        -7.2282   -9.6759   -9.3288 H         1 <0>         0.2062
     45 H16         2.1670   -2.3453   -6.1612 H         1 <0>         0.3960
     46 H17         1.2895    0.0542   -3.9840 H         1 <0>         0.3879
@<TRIPOS>BOND
     1    1    2 1
     2    1   33 1
     3    1   34 1
     4    1   35 1
     5    2    3 1
     6    2   36 1
     7    2   37 1
     8    3    4 am
     9    3   38 1
    10    4    5 2
    11    4    6 1
    12    6    7 1
    13    6   13 1
    14    6    8 1
    15    8    9 1
    16    8   10 1
    17    8   32 1
    18   10   11 1
    19   10   12 1
    20   10   31 1
    21   12   13 1
    22   12   14 1
    23   12   39 1
    24   14   18 1
    25   14   15 1
    26   15   16 2
    27   15   40 1
    28   16   17 1
    29   17   22 ar
    30   17   18 ar
    31   18   19 ar
    32   19   20 ar
    33   20   21 ar
    34   20   24 1
    35   21   22 ar
    36   22   23 1
    37   23   41 1
    38   23   42 1
    39   24   25 3
    40   25   26 1
    41   26   30 1
    42   26   27 2
    43   27   28 1
    44   28   29 2
    45   28   43 1
    46   29   30 1
    47   29   44 1
    48   31   45 1
    49   32   46 1
@<TRIPOS>MOLECULE
CHEMBL607615
   55    58     0     0     0
SMALL
USER_CHARGES

@<TRIPOS>ATOM
      1 C1         -0.0164    1.3599    0.0095 C.2       1 <0>         0.2768
      2 N1          1.2003    1.8205    0.0004 N.2       1 <0>        -0.4605
      3 C2          2.0747    0.7847   -0.0135 C.ar      1 <0>        -0.1326
      4 C3          3.4762    0.6765   -0.0275 C.ar      1 <0>         0.5411
      5 N2          4.0192   -0.5358   -0.0392 N.ar      1 <0>        -0.6319
      6 C4          3.2640   -1.6252   -0.0378 C.ar      1 <0>         0.5674
      7 N3          1.9440   -1.5694   -0.0249 N.ar      1 <0>        -0.5681
      8 C5          1.3163   -0.3974   -0.0126 C.ar      1 <0>         0.3462
      9 N4          0.0021   -0.0041    0.0020 N.pl3     1 <0>        -0.4623
     10 C6         -1.1670   -0.8869    0.0089 C.3       1 <0>         0.3139
     11 C7         -1.5289   -1.2880   -1.4374 C.3       1 <0>         0.0764
     12 H1         -1.1660   -2.2904   -1.6643 H         1 <0>         0.0993
     13 C8         -3.0814   -1.2553   -1.4098 C.3       1 <0>         0.0474
     14 H2         -3.4872   -2.1902   -1.0232 H         1 <0>         0.0935
     15 C9         -3.3335   -0.0870   -0.4237 C.3       1 <0>         0.0513
     16 H3         -3.2628    0.8686   -0.9433 H         1 <0>         0.0987
     17 O1         -2.2939   -0.1968    0.5615 O.3       1 <0>        -0.3458
     18 C10        -4.7077   -0.2333    0.2327 C.3       1 <0>         0.0779
     19 O2         -4.9704    0.9106    1.0480 O.3       1 <0>        -0.5628
     20 O3         -3.6134   -0.9625   -2.7033 O.3       1 <0>        -0.5426
     21 O4         -1.0127   -0.3388   -2.3726 O.3       1 <0>        -0.5344
     22 O5          3.8669   -2.8386   -0.0506 O.3       1 <0>        -0.2866
     23 C11         5.2958   -2.8529   -0.0648 C.3       1 <0>         0.0771
     24 C12         5.7912   -4.3004   -0.0778 C.3       1 <0>        -0.1166
     25 C13         7.3210   -4.3158   -0.0930 C.3       1 <0>        -0.0812
     26 C14         7.8242   -3.7040   -1.4019 C.3       1 <0>        -0.1198
     27 C15         9.3541   -3.7193   -1.4171 C.3       1 <0>        -0.1201
     28 C16         9.8508   -5.1621   -1.3044 C.3       1 <0>        -0.1213
     29 C17         9.3476   -5.7739    0.0046 C.3       1 <0>        -0.1202
     30 C18         7.8177   -5.7585    0.0198 C.3       1 <0>        -0.1134
     31 N5          4.2726    1.8079   -0.0295 N.pl3     1 <0>        -0.8136
     32 H4         -0.9091    1.9676    0.0254 H         1 <0>         0.2164
     33 H5         -0.9536   -1.7783    0.5988 H         1 <0>         0.1370
     34 H6         -5.4727   -0.3123   -0.5397 H         1 <0>         0.0636
     35 H7         -4.7214   -1.1309    0.8509 H         1 <0>         0.0593
     36 H8         -5.8269    0.8859    1.4962 H         1 <0>         0.3856
     37 H9         -4.5794   -0.9319   -2.7335 H         1 <0>         0.3901
     38 H10        -1.2138   -0.5466   -3.2954 H         1 <0>         0.3934
     39 H11         5.6555   -2.3378   -0.9555 H         1 <0>         0.0725
     40 H12         5.6731   -2.3477    0.8244 H         1 <0>         0.0696
     41 H13         5.4315   -4.8156    0.8129 H         1 <0>         0.0751
     42 H14         5.4139   -4.8056   -0.9669 H         1 <0>         0.0747
     43 H15         7.6986   -3.7347    0.7484 H         1 <0>         0.0741
     44 H16         7.4467   -4.2850   -2.2433 H         1 <0>         0.0638
     45 H17         7.4704   -2.6762   -1.4823 H         1 <0>         0.0644
     46 H18         9.7126   -3.2835   -2.3497 H         1 <0>         0.0614
     47 H19         9.7316   -3.1383   -0.5757 H         1 <0>         0.0616
     48 H20         9.4732   -5.7431   -2.1458 H         1 <0>         0.0612
     49 H21        10.9407   -5.1730   -1.3152 H         1 <0>         0.0604
     50 H22         9.7015   -6.8017    0.0849 H         1 <0>         0.0619
     51 H23         9.7251   -5.1928    0.8460 H         1 <0>         0.0617
     52 H24         7.4593   -6.1944    0.9523 H         1 <0>         0.0635
     53 H25         7.4402   -6.3396   -0.8216 H         1 <0>         0.0638
     54 H26         3.8649    2.6880   -0.0212 H         1 <0>         0.4216
     55 H27         5.2386    1.7210   -0.0392 H         1 <0>         0.4100
@<TRIPOS>BOND
     1    1    9 1
     2    1    2 2
     3    1   32 1
     4    2    3 1
     5    3    8 ar
     6    3    4 ar
     7    4    5 ar
     8    4   31 1
     9    5    6 ar
    10    6    7 ar
    11    6   22 1
    12    7    8 ar
    13    8    9 1
    14    9   10 1
    15   10   17 1
    16   10   11 1
    17   10   33 1
    18   11   12 1
    19   11   13 1
    20   11   21 1
    21   13   14 1
    22   13   15 1
    23   13   20 1
    24   15   16 1
    25   15   17 1
    26   15   18 1
    27   18   19 1
    28   18   34 1
    29   18   35 1
    30   19   36 1
    31   20   37 1
    32   21   38 1
    33   22   23 1
    34   23   24 1
    35   23   39 1
    36   23   40 1
    37   24   25 1
    38   24   41 1
    39   24   42 1
    40   25   30 1
    41   25   26 1
    42   25   43 1
    43   26   27 1
    44   26   44 1
    45   26   45 1
    46   27   28 1
    47   27   46 1
    48   27   47 1
    49   28   29 1
    50   28   48 1
    51   28   49 1
    52   29   30 1
    53   29   50 1
    54   29   51 1
    55   30   52 1
    56   30   53 1
    57   31   54 1
    58   31   55 1
@<TRIPOS>MOLECULE
CHEMBL521029
   52    55     0     0     0
SMALL
USER_CHARGES

@<TRIPOS>ATOM
      1 C1          0.1883    1.7699   -0.9812 C.3       1 <0>        -0.0739
      2 C2          0.1700    0.2774   -0.7737 C.2       1 <0>         0.0928
      3 C3          0.0476   -0.6881   -1.7802 C.2       1 <0>        -0.2643
      4 C4          0.0729   -1.9068   -1.1946 C.2       1 <0>         0.1221
      5 N1          0.2074   -1.7167    0.1445 N.pl3     1 <0>        -0.3197
      6 N2          0.2712   -0.3366    0.3765 N.2       1 <0>        -0.2633
      7 C5          0.2756   -2.7173    1.1140 C.ar      1 <0>         0.6020
      8 N3          0.2463   -2.3776    2.3913 N.ar      1 <0>        -0.5271
      9 C6          0.3088   -3.3053    3.3457 C.ar      1 <0>         0.2743
     10 C7          0.4060   -4.6468    2.9798 C.ar      1 <0>        -0.2730
     11 C8          0.4338   -4.9619    1.6233 C.ar      1 <0>         0.4412
     12 N4          0.3622   -3.9803    0.7299 N.ar      1 <0>        -0.5327
     13 N5          0.5304   -6.2862    1.2092 N.am      1 <0>        -0.6545
     14 C9          0.6704   -6.5744   -0.0999 C.2       1 <0>         0.5014
     15 O1          0.6194   -5.6870   -0.9250 O.2       1 <0>        -0.4675
     16 C10         0.8904   -7.9993   -0.5385 C.3       1 <0>        -0.1708
     17 C11         0.2759   -2.9161    4.7767 C.ar      1 <0>        -0.0624
     18 C12         0.0689   -1.5846    5.1448 C.ar      1 <0>        -0.1058
     19 C13         0.0463   -1.2722    6.4997 C.ar      1 <0>         0.1677
     20 C14         0.2290   -2.2875    7.4314 C.ar      1 <0>         0.0430
     21 N6          0.4219   -3.5335    7.0467 N.ar      1 <0>        -0.4410
     22 C15         0.4453   -3.8742    5.7744 C.ar      1 <0>         0.0707
     23 N7         -0.1569    0.0451    6.9190 N.pl3     1 <0>        -0.6246
     24 C16        -0.4866    1.1052    5.9531 C.3       1 <0>         0.0837
     25 C17        -1.7215    1.8568    6.4628 C.3       1 <0>         0.0470
     26 O2         -1.4950    2.2745    7.8112 O.3       1 <0>        -0.3774
     27 C18        -1.3045    1.1986    8.7330 C.3       1 <0>         0.0453
     28 C19        -0.0537    0.4121    8.3402 C.3       1 <0>         0.0846
     29 C20        -0.0301   -3.2350   -1.8991 C.3       1 <0>        -0.0909
     30 H1          1.2148    2.1027   -1.1352 H         1 <0>         0.0818
     31 H2         -0.4107    2.0225   -1.8561 H         1 <0>         0.0825
     32 H3         -0.2258    2.2640   -0.1023 H         1 <0>         0.0761
     33 H4         -0.0504   -0.4938   -2.8380 H         1 <0>         0.1588
     34 H5          0.4588   -5.4225    3.7294 H         1 <0>         0.1597
     35 H6          0.4970   -7.0023    1.8626 H         1 <0>         0.4260
     36 H7         -0.0726   -8.4752   -0.7237 H         1 <0>         0.1006
     37 H8          1.4831   -8.0105   -1.4531 H         1 <0>         0.1016
     38 H9          1.4196   -8.5427    0.2442 H         1 <0>         0.0848
     39 H10        -0.0696   -0.8180    4.3968 H         1 <0>         0.1502
     40 H11         0.2130   -2.0521    8.4853 H         1 <0>         0.1582
     41 H12         0.6020   -4.9073    5.5013 H         1 <0>         0.1590
     42 H13         0.3526    1.7952    5.8647 H         1 <0>         0.0762
     43 H14        -0.7020    0.6619    4.9808 H         1 <0>         0.0947
     44 H15        -1.9003    2.7306    5.8362 H         1 <0>         0.1080
     45 H16        -2.5893    1.1982    6.4266 H         1 <0>         0.0563
     46 H17        -1.1833    1.5987    9.7397 H         1 <0>         0.1083
     47 H18        -2.1707    0.5375    8.7051 H         1 <0>         0.0565
     48 H19         0.0174   -0.4898    8.9481 H         1 <0>         0.0939
     49 H20         0.8298    1.0312    8.4963 H         1 <0>         0.0766
     50 H21         0.9649   -3.5673   -2.1952 H         1 <0>         0.0837
     51 H22        -0.4734   -3.9695   -1.2267 H         1 <0>         0.1081
     52 H23        -0.6562   -3.1289   -2.7850 H         1 <0>         0.0716
@<TRIPOS>BOND
     1    1    2 1
     2    1   30 1
     3    1   31 1
     4    1   32 1
     5    2    6 2
     6    2    3 1
     7    3    4 2
     8    3   33 1
     9    4    5 1
    10    4   29 1
    11    5    6 1
    12    5    7 1
    13    7   12 ar
    14    7    8 ar
    15    8    9 ar
    16    9   10 ar
    17    9   17 1
    18   10   11 ar
    19   10   34 1
    20   11   12 ar
    21   11   13 1
    22   13   14 am
    23   13   35 1
    24   14   15 2
    25   14   16 1
    26   16   36 1
    27   16   37 1
    28   16   38 1
    29   17   22 ar
    30   17   18 ar
    31   18   19 ar
    32   18   39 1
    33   19   20 ar
    34   19   23 1
    35   20   21 ar
    36   20   40 1
    37   21   22 ar
    38   22   41 1
    39   23   28 1
    40   23   24 1
    41   24   25 1
    42   24   42 1
    43   24   43 1
    44   25   26 1
    45   25   44 1
    46   25   45 1
    47   26   27 1
    48   27   28 1
    49   27   46 1
    50   27   47 1
    51   28   48 1
    52   28   49 1
    53   29   50 1
    54   29   51 1
    55   29   52 1
@<TRIPOS>MOLECULE
CHEMBL56487
   57    61     0     0     0
SMALL
USER_CHARGES

@<TRIPOS>ATOM
      1 C1         -0.0167    1.3781    0.0096 C.ar      1 <0>        -0.1213
      2 C2          1.1709    2.0855    0.0021 C.ar      1 <0>        -0.1182
      3 C3          2.3773    1.4107   -0.0130 C.ar      1 <0>        -0.1133
      4 C4          2.3960    0.0285   -0.0201 C.ar      1 <0>        -0.0815
      5 C5          1.2084   -0.6789   -0.0117 C.ar      1 <0>        -0.1134
      6 C6          0.0021   -0.0041    0.0020 C.ar      1 <0>        -0.1184
      7 C7          3.7112   -0.7071   -0.0376 C.3       1 <0>        -0.0936
      8 C8          4.1714   -0.9633    1.3989 C.3       1 <0>         0.1474
      9 N1          5.4498   -1.6784    1.3820 N.pl3     1 <0>        -0.6983
     10 C9          6.0668   -2.0225    2.5735 C.ar      1 <0>         0.6299
     11 N2          5.4773   -1.6980    3.7174 N.ar      1 <0>        -0.6252
     12 C10         6.0291   -2.0059    4.8855 C.ar      1 <0>         0.5432
     13 C11         7.2589   -2.6873    4.8896 C.ar      1 <0>        -0.1496
     14 C12         7.8453   -3.0100    3.6549 C.ar      1 <0>         0.3572
     15 N3          7.2208   -2.6680    2.5321 N.ar      1 <0>        -0.6164
     16 N4          9.0169   -3.6597    3.9504 N.pl3     1 <0>        -0.4679
     17 C13         9.1198   -3.7193    5.3096 C.2       1 <0>         0.2623
     18 N5          8.0877   -3.1484    5.8584 N.2       1 <0>        -0.4567
     19 C14         9.9803   -4.1926    2.9838 C.3       1 <0>         0.3184
     20 C15         9.5559   -5.6120    2.5496 C.3       1 <0>         0.0798
     21 H1          9.0674   -5.5898    1.5754 H         1 <0>         0.1022
     22 C16        10.9184   -6.3529    2.4679 C.3       1 <0>         0.0502
     23 H2         11.4037   -6.1779    1.5078 H         1 <0>         0.0981
     24 C17        11.6955   -5.6671    3.6197 C.3       1 <0>         0.0354
     25 H3         11.4365   -6.1235    4.5751 H         1 <0>         0.1190
     26 O1         11.2731   -4.2944    3.5920 O.3       1 <0>        -0.3274
     27 C18        13.1801   -5.7646    3.3798 C.2       1 <0>         0.5160
     28 O2         13.8303   -4.7594    3.1857 O.2       1 <0>        -0.5017
     29 N6         13.7852   -6.9689    3.3808 N.am      1 <0>        -0.7001
     30 C19        15.2284   -7.0637    3.1475 C.3       1 <0>         0.0751
     31 C20        16.0288   -8.0083    4.0465 C.3       1 <0>        -0.1897
     32 C21        15.7682   -8.3804    2.5855 C.3       1 <0>        -0.1858
     33 O3         10.7596   -7.7516    2.7139 O.3       1 <0>        -0.5357
     34 O4          8.7048   -6.2104    3.5292 O.3       1 <0>        -0.5312
     35 N7          5.4074   -1.6630    6.0730 N.pl3     1 <0>        -0.8171
     36 H4         -0.9591    1.9053    0.0259 H         1 <0>         0.1215
     37 H5          1.1563    3.1654    0.0076 H         1 <0>         0.1224
     38 H6          3.3051    1.9634   -0.0196 H         1 <0>         0.1222
     39 H7          1.2231   -1.7588   -0.0176 H         1 <0>         0.1220
     40 H8         -0.9258   -0.5567    0.0082 H         1 <0>         0.1223
     41 H9          3.5884   -1.6586   -0.5549 H         1 <0>         0.0798
     42 H10         4.4573   -0.1052   -0.5563 H         1 <0>         0.0801
     43 H11         4.2941   -0.0118    1.9163 H         1 <0>         0.0688
     44 H12         3.4252   -1.5652    1.9176 H         1 <0>         0.0688
     45 H13         5.8643   -1.9110    0.5363 H         1 <0>         0.4132
     46 H14         9.9371   -4.1737    5.8500 H         1 <0>         0.2113
     47 H15        10.0315   -3.5380    2.1138 H         1 <0>         0.1387
     48 H16        13.2651   -7.7729    3.5360 H         1 <0>         0.3984
     49 H17        15.7141   -6.1425    2.8259 H         1 <0>         0.1414
     50 H18        17.0413   -7.7085    4.3166 H         1 <0>         0.1060
     51 H19        15.4815   -8.5591    4.8115 H         1 <0>         0.0995
     52 H20        15.0495   -9.1761    2.3893 H         1 <0>         0.0991
     53 H21        16.6093   -8.3254    1.8944 H         1 <0>         0.1072
     54 H22        11.5846   -8.2542    2.6730 H         1 <0>         0.3839
     55 H23         8.4111   -7.1033    3.3023 H         1 <0>         0.3935
     56 H24         4.5592   -1.1927    6.0582 H         1 <0>         0.4086
     57 H25         5.8196   -1.8931    6.9204 H         1 <0>         0.4199
@<TRIPOS>BOND
     1    1    6 ar
     2    1    2 ar
     3    1   36 1
     4    2    3 ar
     5    2   37 1
     6    3    4 ar
     7    3   38 1
     8    4    5 ar
     9    4    7 1
    10    5    6 ar
    11    5   39 1
    12    6   40 1
    13    7    8 1
    14    7   41 1
    15    7   42 1
    16    8    9 1
    17    8   43 1
    18    8   44 1
    19    9   10 1
    20    9   45 1
    21   10   15 ar
    22   10   11 ar
    23   11   12 ar
    24   12   13 ar
    25   12   35 1
    26   13   18 1
    27   13   14 ar
    28   14   15 ar
    29   14   16 1
    30   16   17 1
    31   16   19 1
    32   17   18 2
    33   17   46 1
    34   19   26 1
    35   19   20 1
    36   19   47 1
    37   20   21 1
    38   20   22 1
    39   20   34 1
    40   22   23 1
    41   22   24 1
    42   22   33 1
    43   24   25 1
    44   24   26 1
    45   24   27 1
    46   27   28 2
    47   27   29 am
    48   29   30 1
    49   29   48 1
    50   30   32 1
    51   30   31 1
    52   30   49 1
    53   31   32 1
    54   31   50 1
    55   31   51 1
    56   32   52 1
    57   32   53 1
    58   33   54 1
    59   34   55 1
    60   35   56 1
    61   35   57 1
@<TRIPOS>MOLECULE
CHEMBL510959
   72    78     0     0     0
SMALL
USER_CHARGES

@<TRIPOS>ATOM
      1 C1          0.2548    0.9383   -0.6834 C.3       1 <0>         0.0214
      2 O1          0.1693   -0.4836   -0.5693 O.3       1 <0>        -0.2964
      3 C2         -1.0707   -1.0159   -0.4001 C.ar      1 <0>         0.1325
      4 C3         -2.1808   -0.1910   -0.3506 C.ar      1 <0>        -0.1686
      5 C4         -3.4462   -0.7296   -0.1771 C.ar      1 <0>        -0.0824
      6 C5         -3.6044   -2.0941   -0.0510 C.ar      1 <0>        -0.1244
      7 C6         -2.4949   -2.9250   -0.1024 C.ar      1 <0>        -0.1394
      8 C7         -1.2301   -2.3933   -0.2815 C.ar      1 <0>         0.1159
      9 O2         -0.1464   -3.2131   -0.3366 O.3       1 <0>        -0.2951
     10 C8         -0.3869   -4.6158   -0.2075 C.3       1 <0>         0.0191
     11 C9         -4.9605   -2.7187    0.1481 C.3       1 <0>         0.0917
     12 N1         -6.0206   -1.7897   -0.2532 N.4       1 <0>        -0.3756
     13 C10        -5.8378   -0.5171    0.4612 C.3       1 <0>        -0.0170
     14 C11        -4.6280    0.2056   -0.1327 C.3       1 <0>        -0.0990
     15 C12        -7.3301   -2.3613    0.0881 C.3       1 <0>        -0.0368
     16 C13        -8.4383   -1.4701   -0.4765 C.3       1 <0>         0.1268
     17 N2         -9.7443   -2.0401   -0.1361 N.pl3     1 <0>        -0.3736
     18 C14       -10.4440   -2.9373   -0.8860 C.2       1 <0>         0.3753
     19 C15       -11.6291   -3.2059   -0.1844 C.2       1 <0>        -0.2579
     20 C16       -11.5998   -2.4400    0.9949 C.2       1 <0>         0.1531
     21 N3        -10.4856   -1.7613    1.0188 N.2       1 <0>        -0.2675
     22 C17       -12.5778   -4.1509   -0.7744 C.2       1 <0>         0.4005
     23 N4        -13.7508   -4.6272   -0.4119 N.2       1 <0>        -0.5063
     24 C18       -14.1951   -5.4834   -1.3407 C.2       1 <0>         0.3631
     25 N5        -13.3085   -5.5672   -2.3147 N.2       1 <0>        -0.2940
     26 N6        -12.2481   -4.7160   -1.9789 N.pl3     1 <0>        -0.3786
     27 C19       -11.0692   -4.3909   -2.5846 C.2       1 <0>         0.7052
     28 N7        -10.2176   -3.5450   -2.0589 N.2       1 <0>        -0.5787
     29 N8        -10.7636   -4.9728   -3.7928 N.pl3     1 <0>        -0.7950
     30 C20       -15.4760   -6.2185   -1.2840 C.2       1 <0>         0.0280
     31 C21       -15.9355   -7.0939   -2.2171 C.2       1 <0>        -0.1277
     32 C22       -17.1860   -7.5550   -1.7601 C.2       1 <0>        -0.2204
     33 C23       -17.4256   -6.9447   -0.5828 C.2       1 <0>         0.0051
     34 O3        -16.3883   -6.1419   -0.2959 O.3       1 <0>        -0.1521
     35 C24        -5.1379   -3.0792    1.6244 C.3       1 <0>        -0.0958
     36 C25        -4.1579   -4.1612    1.9985 C.ar      1 <0>        -0.1015
     37 C26        -4.4543   -5.4847    1.7313 C.ar      1 <0>        -0.1133
     38 C27        -3.5554   -6.4772    2.0745 C.ar      1 <0>        -0.1148
     39 C28        -2.3599   -6.1462    2.6845 C.ar      1 <0>        -0.1053
     40 C29        -2.0631   -4.8226    2.9509 C.ar      1 <0>        -0.1175
     41 C30        -2.9601   -3.8298    2.6038 C.ar      1 <0>        -0.0958
     42 H1          1.2968    1.2303   -0.8141 H         1 <0>         0.1103
     43 H2         -0.3260    1.2693   -1.5443 H         1 <0>         0.0599
     44 H3         -0.1412    1.3998    0.2212 H         1 <0>         0.0602
     45 H4         -2.0606    0.8779   -0.4474 H         1 <0>         0.1464
     46 H5         -2.6194   -3.9935   -0.0063 H         1 <0>         0.1449
     47 H6          0.5591   -5.1538   -0.2687 H         1 <0>         0.1088
     48 H7         -0.8576   -4.8167    0.7549 H         1 <0>         0.0615
     49 H8         -1.0457   -4.9469   -1.0103 H         1 <0>         0.0559
     50 H9         -5.0304   -3.6251   -0.4534 H         1 <0>         0.1433
     51 H10        -6.7279    0.1007    0.3420 H         1 <0>         0.1399
     52 H11        -5.6640   -0.7129    1.5193 H         1 <0>         0.1384
     53 H12        -4.3832    1.0699    0.4846 H         1 <0>         0.1243
     54 H13        -4.8648    0.5385   -1.1433 H         1 <0>         0.1049
     55 H14        -7.4134   -3.3601   -0.3402 H         1 <0>         0.1388
     56 H15        -7.4290   -2.4213    1.1720 H         1 <0>         0.1455
     57 H16        -8.3550   -0.4713   -0.0481 H         1 <0>         0.1221
     58 H17        -8.3394   -1.4101   -1.5603 H         1 <0>         0.1187
     59 H18       -12.3676   -2.4203    1.7542 H         1 <0>         0.2091
     60 H19       -11.3811   -5.6013   -4.1984 H         1 <0>         0.4311
     61 H20        -9.9305   -4.7548   -4.2392 H         1 <0>         0.4312
     62 H21       -15.4382   -7.3802   -3.1320 H         1 <0>         0.1609
     63 H22       -17.8307   -8.2633   -2.2591 H         1 <0>         0.1622
     64 H23       -18.3042   -7.0816    0.0301 H         1 <0>         0.2172
     65 H24        -4.9567   -2.1969    2.2382 H         1 <0>         0.0989
     66 H25        -6.1542   -3.4358    1.7917 H         1 <0>         0.0984
     67 H26        -5.3883   -5.7434    1.2548 H         1 <0>         0.1218
     68 H27        -3.7873   -7.5113    1.8664 H         1 <0>         0.1290
     69 H28        -1.6579   -6.9217    2.9533 H         1 <0>         0.1297
     70 H29        -1.1292   -4.5640    3.4278 H         1 <0>         0.1287
     71 H30        -2.7266   -2.7954    2.8086 H         1 <0>         0.1223
     72 H31        -5.9699   -1.6289   -1.2480 H         1 <0>         0.4284
@<TRIPOS>BOND
     1    1    2 1
     2    1   42 1
     3    1   43 1
     4    1   44 1
     5    2    3 1
     6    3    8 ar
     7    3    4 ar
     8    4    5 ar
     9    4   45 1
    10    5   14 1
    11    5    6 ar
    12    6    7 ar
    13    6   11 1
    14    7    8 ar
    15    7   46 1
    16    8    9 1
    17    9   10 1
    18   10   47 1
    19   10   48 1
    20   10   49 1
    21   11   12 1
    22   11   35 1
    23   11   50 1
    24   12   13 1
    25   12   15 1
    26   12   72 1
    27   13   14 1
    28   13   51 1
    29   13   52 1
    30   14   53 1
    31   14   54 1
    32   15   16 1
    33   15   55 1
    34   15   56 1
    35   16   17 1
    36   16   57 1
    37   16   58 1
    38   17   21 1
    39   17   18 1
    40   18   28 1
    41   18   19 2
    42   19   20 1
    43   19   22 1
    44   20   21 2
    45   20   59 1
    46   22   26 1
    47   22   23 2
    48   23   24 1
    49   24   25 2
    50   24   30 1
    51   25   26 1
    52   26   27 1
    53   27   28 2
    54   27   29 1
    55   29   60 1
    56   29   61 1
    57   30   34 1
    58   30   31 2
    59   31   32 1
    60   31   62 1
    61   32   33 2
    62   32   63 1
    63   33   34 1
    64   33   64 1
    65   35   36 1
    66   35   65 1
    67   35   66 1
    68   36   41 ar
    69   36   37 ar
    70   37   38 ar
    71   37   67 1
    72   38   39 ar
    73   38   68 1
    74   39   40 ar
    75   39   69 1
    76   40   41 ar
    77   40   70 1
    78   41   71 1
@<TRIPOS>MOLECULE
CHEMBL240847
   70    76     0     0     0
SMALL
USER_CHARGES

@<TRIPOS>ATOM
      1 C1          0.0045    1.3988    0.1337 C.2       1 <0>        -0.2200
      2 C2          1.3478    1.8233    0.1157 C.2       1 <0>        -0.1368
      3 C3          2.1132    0.7001    0.0874 C.2       1 <0>         0.0418
      4 O1          1.2915   -0.3672    0.0877 O.3       1 <0>        -0.1521
      5 C4          0.0160    0.0514    0.1157 C.2       1 <0>        -0.0037
      6 C5          3.5902    0.6575    0.0608 C.2       1 <0>         0.3511
      7 N1          4.3333   -0.4560    0.0277 N.2       1 <0>        -0.5155
      8 C6          5.6103   -0.1352    0.0112 C.2       1 <0>         0.4064
      9 C7          6.8579   -0.8991   -0.0240 C.2       1 <0>        -0.2663
     10 C8          7.1786   -2.2681   -0.0547 C.2       1 <0>         0.1316
     11 N2          8.4778   -2.3872   -0.0793 N.2       1 <0>        -0.2604
     12 N3          9.0636   -1.1153   -0.0660 N.pl3     1 <0>        -0.3543
     13 C9          8.0667   -0.1868   -0.0318 C.2       1 <0>         0.3699
     14 N4          8.0449    1.1531   -0.0064 N.2       1 <0>        -0.5628
     15 C10         6.9259    1.8343    0.0258 C.2       1 <0>         0.6925
     16 N5          5.7013    1.2323    0.0344 N.pl3     1 <0>        -0.3763
     17 N6          4.3852    1.7111    0.0603 N.2       1 <0>        -0.2996
     18 N7          6.9881    3.2081    0.0504 N.pl3     1 <0>        -0.8021
     19 C11        10.5007   -0.8317   -0.0847 C.3       1 <0>         0.1417
     20 C12        10.9771   -0.7064   -1.5332 C.3       1 <0>         0.0418
     21 N8         12.4182   -0.4220   -1.5519 N.3       1 <0>        -0.5308
     22 C13        12.7024    0.8955   -0.9677 C.3       1 <0>         0.0341
     23 C14        14.2186    1.0775   -0.8397 C.3       1 <0>         0.1280
     24 N9         14.8310    0.8351   -2.1548 N.pl3     1 <0>        -0.6337
     25 C15        14.4849   -0.4052   -2.8656 C.3       1 <0>         0.1291
     26 C16        12.9582   -0.5288   -2.9139 C.3       1 <0>         0.0425
     27 C17        15.7190    1.7601   -2.7151 C.ar      1 <0>         0.1869
     28 C18        15.9464    2.9755   -2.0831 C.ar      1 <0>        -0.1594
     29 C19        16.8233    3.8877   -2.6366 C.ar      1 <0>        -0.0998
     30 C20        17.4768    3.5902   -3.8232 C.ar      1 <0>         0.0736
     31 C21        17.2499    2.3766   -4.4554 C.ar      1 <0>        -0.1584
     32 C22        16.3776    1.4609   -3.9004 C.ar      1 <0>        -0.1599
     33 O2         18.3401    4.4890   -4.3675 O.3       1 <0>        -0.3103
     34 C23        18.9782    4.1170   -5.5908 C.3       1 <0>         0.0632
     35 C24        19.9055    5.2455   -6.0462 C.3       1 <0>         0.0652
     36 O3         20.9647    5.4028   -5.0999 O.3       1 <0>        -0.3490
     37 C25        21.8926    6.4373   -5.4327 C.3       1 <0>         0.0134
     38 C26        23.3734    6.1759   -5.1500 C.3       1 <0>        -0.1890
     39 C27        22.5900    7.1591   -4.2779 C.3       1 <0>        -0.1822
     40 H1         -0.8692    2.0331    0.1614 H         1 <0>         0.1595
     41 H2          1.7013    2.8439    0.1224 H         1 <0>         0.1599
     42 H3         -0.8559   -0.5859    0.1233 H         1 <0>         0.2144
     43 H4          6.4697   -3.0828   -0.0574 H         1 <0>         0.2030
     44 H5          7.8491    3.6548    0.0437 H         1 <0>         0.4302
     45 H6          6.1710    3.7302    0.0743 H         1 <0>         0.4266
     46 H7         10.6937    0.1021    0.4433 H         1 <0>         0.0992
     47 H8         11.0377   -1.6439    0.4054 H         1 <0>         0.1119
     48 H9         10.7841   -1.6402   -2.0613 H         1 <0>         0.0873
     49 H10        10.4401    0.1058   -2.0233 H         1 <0>         0.0419
     50 H11        12.2958    1.6746   -1.6124 H         1 <0>         0.0422
     51 H12        12.2435    0.9627    0.0186 H         1 <0>         0.0869
     52 H13        14.4392    2.0943   -0.5149 H         1 <0>         0.0869
     53 H14        14.6130    0.3650   -0.1152 H         1 <0>         0.0706
     54 H15        14.8815   -0.3686   -3.8802 H         1 <0>         0.0858
     55 H16        14.9049   -1.2602   -2.3358 H         1 <0>         0.0708
     56 H17        12.6848   -1.4945   -3.3389 H         1 <0>         0.0875
     57 H18        12.5480    0.2702   -3.5315 H         1 <0>         0.0401
     58 H19        15.4373    3.2075   -1.1593 H         1 <0>         0.1288
     59 H20        17.0000    4.8332   -2.1454 H         1 <0>         0.1295
     60 H21        17.7589    2.1458   -5.3795 H         1 <0>         0.1254
     61 H22        16.2047    0.5140   -4.3902 H         1 <0>         0.1245
     62 H23        19.5605    3.2087   -5.4353 H         1 <0>         0.0694
     63 H24        18.2221    3.9374   -6.3551 H         1 <0>         0.0766
     64 H25        20.3239    5.0005   -7.0224 H         1 <0>         0.0732
     65 H26        19.3399    6.1747   -6.1161 H         1 <0>         0.0635
     66 H27        21.6447    7.0246   -6.3169 H         1 <0>         0.1108
     67 H28        23.6398    5.2148   -4.7102 H         1 <0>         0.1003
     68 H29        24.1000    6.5911   -5.8484 H         1 <0>         0.1004
     69 H30        22.8013    8.2211   -4.4025 H         1 <0>         0.1012
     70 H31        22.3411    6.8448   -3.2643 H         1 <0>         0.1013
@<TRIPOS>BOND
     1    1    5 2
     2    1    2 1
     3    1   40 1
     4    2    3 2
     5    2   41 1
     6    3    4 1
     7    3    6 1
     8    4    5 1
     9    5   42 1
    10    6   17 2
    11    6    7 1
    12    7    8 2
    13    8   16 1
    14    8    9 1
    15    9   13 2
    16    9   10 1
    17   10   11 2
    18   10   43 1
    19   11   12 1
    20   12   13 1
    21   12   19 1
    22   13   14 1
    23   14   15 2
    24   15   16 1
    25   15   18 1
    26   16   17 1
    27   18   44 1
    28   18   45 1
    29   19   20 1
    30   19   46 1
    31   19   47 1
    32   20   21 1
    33   20   48 1
    34   20   49 1
    35   21   26 1
    36   21   22 1
    37   22   23 1
    38   22   50 1
    39   22   51 1
    40   23   24 1
    41   23   52 1
    42   23   53 1
    43   24   25 1
    44   24   27 1
    45   25   26 1
    46   25   54 1
    47   25   55 1
    48   26   56 1
    49   26   57 1
    50   27   32 ar
    51   27   28 ar
    52   28   29 ar
    53   28   58 1
    54   29   30 ar
    55   29   59 1
    56   30   31 ar
    57   30   33 1
    58   31   32 ar
    59   31   60 1
    60   32   61 1
    61   33   34 1
    62   34   35 1
    63   34   62 1
    64   34   63 1
    65   35   36 1
    66   35   64 1
    67   35   65 1
    68   36   37 1
    69   37   39 1
    70   37   38 1
    71   37   66 1
    72   38   39 1
    73   38   67 1
    74   38   68 1
    75   39   69 1
    76   39   70 1
@<TRIPOS>MOLECULE
CHEMBL606297
   52    55     0     0     0
SMALL
USER_CHARGES

@<TRIPOS>ATOM
      1 C1          1.1309   -0.2546    1.6915 C.3       1 <0>         0.0864
      2 N1          0.5871   -1.4504    1.0429 N.am      1 <0>        -0.7404
      3 C2          1.0867   -1.8619   -0.1393 C.2       1 <0>         0.5094
      4 O1          1.9864   -1.2423   -0.6661 O.2       1 <0>        -0.5245
      5 C3          0.5273   -3.0919   -0.8066 C.3       1 <0>        -0.0987
      6 C4          1.2535   -3.3333   -2.1048 C.ar      1 <0>        -0.0866
      7 C5          0.7855   -2.7614   -3.2737 C.ar      1 <0>        -0.0837
      8 C6          1.4485   -2.9806   -4.4652 C.ar      1 <0>        -0.1442
      9 C7          2.5870   -3.7762   -4.4885 C.ar      1 <0>         0.1571
     10 C8          3.0546   -4.3487   -3.3124 C.ar      1 <0>        -0.1085
     11 C9          2.3895   -4.1215   -2.1236 C.ar      1 <0>        -0.0841
     12 N2          3.2602   -4.0004   -5.6927 N.pl3     1 <0>        -0.6366
     13 C10         4.6399   -4.1190   -5.7029 C.ar      1 <0>         0.4972
     14 C11         5.3232   -4.4645   -6.8814 C.ar      1 <0>        -0.0938
     15 C12         6.7235   -4.5692   -6.8299 C.ar      1 <0>         0.3104
     16 N3          7.3464   -4.3396   -5.6785 N.ar      1 <0>        -0.5551
     17 C13         6.6647   -4.0184   -4.5992 C.ar      1 <0>         0.3575
     18 N4          5.3492   -3.9031   -4.5999 N.ar      1 <0>        -0.5722
     19 N5          7.1239   -4.9126   -8.0964 N.pl3     1 <0>        -0.4640
     20 C14         6.0039   -5.0075   -8.8675 C.2       1 <0>         0.2882
     21 N6          4.9485   -4.7443   -8.1527 N.2       1 <0>        -0.4699
     22 C15         8.5025   -5.1363   -8.5389 C.3       1 <0>         0.3141
     23 C16         9.1508   -3.7917   -8.9328 C.3       1 <0>         0.0765
     24 H1          9.7989   -3.4256   -8.1366 H         1 <0>         0.0992
     25 C17         9.9810   -4.1808  -10.1863 C.3       1 <0>         0.0476
     26 H2         10.9497   -4.5928   -9.9036 H         1 <0>         0.0937
     27 C18         9.0734   -5.2684  -10.8143 C.3       1 <0>         0.0511
     28 H3          8.2838   -4.8063  -11.4068 H         1 <0>         0.0986
     29 O2          8.5101   -5.9768   -9.6988 O.3       1 <0>        -0.3462
     30 C19         9.9031   -6.2155  -11.6834 C.3       1 <0>         0.0780
     31 O3          9.0352   -7.1382  -12.3449 O.3       1 <0>        -0.5629
     32 O4         10.1362   -3.0666  -11.0675 O.3       1 <0>        -0.5426
     33 O5          8.1529   -2.8224   -9.2595 O.3       1 <0>        -0.5350
     34 H4          2.1926   -0.4004    1.8907 H         1 <0>         0.0595
     35 H5          0.9990    0.6061    1.0360 H         1 <0>         0.0591
     36 H6          0.6057   -0.0800    2.6306 H         1 <0>         0.0750
     37 H7         -0.1325   -1.9459    1.4642 H         1 <0>         0.4019
     38 H8          0.6592   -3.9527   -0.1510 H         1 <0>         0.1029
     39 H9         -0.5344   -2.9461   -1.0058 H         1 <0>         0.1025
     40 H10        -0.0997   -2.1430   -3.2549 H         1 <0>         0.1227
     41 H11         1.0821   -2.5342   -5.3778 H         1 <0>         0.1244
     42 H12         3.9395   -4.9678   -3.3271 H         1 <0>         0.1336
     43 H13         2.7547   -4.5633   -1.2082 H         1 <0>         0.1223
     44 H14         2.7610   -4.0731   -6.5212 H         1 <0>         0.4268
     45 H15         7.2017   -3.8387   -3.6796 H         1 <0>         0.2056
     46 H16         5.9936   -5.2634   -9.9167 H         1 <0>         0.2171
     47 H17         9.0760   -5.6047   -7.7391 H         1 <0>         0.1370
     48 H18        10.4539   -5.6384  -12.4262 H         1 <0>         0.0640
     49 H19        10.6053   -6.7636  -11.0553 H         1 <0>         0.0594
     50 H20         9.4941   -7.7706  -12.9146 H         1 <0>         0.3859
     51 H21        10.6481   -3.2633  -11.8639 H         1 <0>         0.3906
     52 H22         8.5102   -1.9605   -9.5137 H         1 <0>         0.3942
@<TRIPOS>BOND
     1    1    2 1
     2    1   34 1
     3    1   35 1
     4    1   36 1
     5    2    3 am
     6    2   37 1
     7    3    4 2
     8    3    5 1
     9    5    6 1
    10    5   38 1
    11    5   39 1
    12    6   11 ar
    13    6    7 ar
    14    7    8 ar
    15    7   40 1
    16    8    9 ar
    17    8   41 1
    18    9   10 ar
    19    9   12 1
    20   10   11 ar
    21   10   42 1
    22   11   43 1
    23   12   13 1
    24   12   44 1
    25   13   18 ar
    26   13   14 ar
    27   14   21 1
    28   14   15 ar
    29   15   16 ar
    30   15   19 1
    31   16   17 ar
    32   17   18 ar
    33   17   45 1
    34   19   20 1
    35   19   22 1
    36   20   21 2
    37   20   46 1
    38   22   29 1
    39   22   23 1
    40   22   47 1
    41   23   24 1
    42   23   25 1
    43   23   33 1
    44   25   26 1
    45   25   27 1
    46   25   32 1
    47   27   28 1
    48   27   29 1
    49   27   30 1
    50   30   31 1
    51   30   48 1
    52   30   49 1
    53   31   50 1
    54   32   51 1
    55   33   52 1
@<TRIPOS>MOLECULE
CHEMBL1098765
   49    53     0     0     0
SMALL
USER_CHARGES

@<TRIPOS>ATOM
      1 C1         -0.0167    1.3793    0.0096 C.ar      1 <0>        -0.0943
      2 C2          1.1685    2.0928    0.0021 C.ar      1 <0>        -0.1350
      3 C3          2.3774    1.4278   -0.0129 C.ar      1 <0>        -0.0671
      4 C4          2.4029    0.0333   -0.0206 C.ar      1 <0>        -0.0790
      5 C5          1.2046   -0.6805   -0.0130 C.ar      1 <0>        -0.0585
      6 C6          0.0021   -0.0041    0.0020 C.ar      1 <0>        -0.1275
      7 C7          3.6972   -0.6867   -0.0373 C.ar      1 <0>         0.3365
      8 C8          3.8485   -1.9052    0.6418 C.ar      1 <0>        -0.3401
      9 C9          5.0990   -2.5520    0.5965 C.ar      1 <0>         0.3031
     10 N1          6.0850   -1.9873   -0.0846 N.ar      1 <0>        -0.5622
     11 C10         5.9021   -0.8317   -0.7150 C.ar      1 <0>         0.5995
     12 N2          4.7422   -0.1939   -0.7024 N.ar      1 <0>        -0.5700
     13 N3          6.9569   -0.2801   -1.4120 N.pl3     1 <0>        -0.8065
     14 C11         5.0073   -3.8086    1.3828 C.ar      1 <0>         0.0135
     15 C12         5.9358   -4.7988    1.6558 C.ar      1 <0>        -0.1436
     16 C13         5.5750   -5.8959    2.4403 C.ar      1 <0>         0.2469
     17 C14         4.2862   -5.9985    2.9488 C.ar      1 <0>        -0.1933
     18 C15         3.3534   -5.0149    2.6806 C.ar      1 <0>         0.0058
     19 C16         3.7034   -3.9174    1.9004 C.ar      1 <0>        -0.2141
     20 C17         2.9375   -2.7308    1.4534 C.2       1 <0>         0.4683
     21 O1          1.7751   -2.4843    1.7089 O.2       1 <0>        -0.4254
     22 N4          6.5081   -6.8890    2.7129 N.pl3     1 <0>        -0.7349
     23 C18         6.1322   -8.0414    3.5358 C.3       1 <0>         0.1281
     24 C19         7.3334   -8.9777    3.6812 C.3       1 <0>        -0.0798
     25 C20         6.9468  -10.1631    4.5276 C.ar      1 <0>         0.1280
     26 C21         7.1324  -11.4422    4.0375 C.ar      1 <0>        -0.1667
     27 C22         6.7734  -12.5257    4.8241 C.ar      1 <0>        -0.0718
     28 C23         6.2386  -12.2812    6.0800 C.ar      1 <0>        -0.1743
     29 C24         6.0825  -10.9749    6.5027 C.ar      1 <0>         0.1046
     30 N5          6.4402   -9.9683    5.7293 N.ar      1 <0>        -0.4810
     31 H1         -0.9604    1.9042    0.0260 H         1 <0>         0.1257
     32 H2          1.1475    3.1726    0.0077 H         1 <0>         0.1273
     33 H3          3.3020    1.9859   -0.0191 H         1 <0>         0.1286
     34 H4          1.2180   -1.7604   -0.0193 H         1 <0>         0.1362
     35 H5         -0.9264   -0.5557    0.0082 H         1 <0>         0.1284
     36 H6          7.8133   -0.7350   -1.4359 H         1 <0>         0.4187
     37 H7          6.8423    0.5627   -1.8783 H         1 <0>         0.4200
     38 H8          6.9385   -4.7227    1.2620 H         1 <0>         0.1367
     39 H9          4.0125   -6.8494    3.5551 H         1 <0>         0.1361
     40 H10         2.3523   -5.0978    3.0772 H         1 <0>         0.1385
     41 H11         7.4083   -6.8192    2.3584 H         1 <0>         0.4043
     42 H12         5.8184   -7.6972    4.5212 H         1 <0>         0.0795
     43 H13         5.3106   -8.5758    3.0588 H         1 <0>         0.0647
     44 H14         7.6473   -9.3219    2.6958 H         1 <0>         0.0872
     45 H15         8.1551   -8.4433    4.1581 H         1 <0>         0.0914
     46 H16         7.5515  -11.5954    3.0540 H         1 <0>         0.1356
     47 H17         6.9066  -13.5363    4.4672 H         1 <0>         0.1364
     48 H18         5.9475  -13.1013    6.7195 H         1 <0>         0.1369
     49 H19         5.6668  -10.7761    7.4795 H         1 <0>         0.1585
@<TRIPOS>BOND
     1    1    6 ar
     2    1    2 ar
     3    1   31 1
     4    2    3 ar
     5    2   32 1
     6    3    4 ar
     7    3   33 1
     8    4    5 ar
     9    4    7 1
    10    5    6 ar
    11    5   34 1
    12    6   35 1
    13    7   12 ar
    14    7    8 ar
    15    8   20 1
    16    8    9 ar
    17    9   10 ar
    18    9   14 1
    19   10   11 ar
    20   11   12 ar
    21   11   13 1
    22   13   36 1
    23   13   37 1
    24   14   19 ar
    25   14   15 ar
    26   15   16 ar
    27   15   38 1
    28   16   17 ar
    29   16   22 1
    30   17   18 ar
    31   17   39 1
    32   18   19 ar
    33   18   40 1
    34   19   20 1
    35   20   21 2
    36   22   23 1
    37   22   41 1
    38   23   24 1
    39   23   42 1
    40   23   43 1
    41   24   25 1
    42   24   44 1
    43   24   45 1
    44   25   30 ar
    45   25   26 ar
    46   26   27 ar
    47   26   46 1
    48   27   28 ar
    49   27   47 1
    50   28   29 ar
    51   28   48 1
    52   29   30 ar
    53   29   49 1
@<TRIPOS>MOLECULE
CHEMBL1086956
   32    34     0     0     0
SMALL
USER_CHARGES

@<TRIPOS>ATOM
      1 C1         -0.0184    1.5028    0.0103 C.3       1 <0>        -0.1140
      2 C2          0.0021   -0.0041    0.0020 C.2       1 <0>         0.4106
      3 N1          0.0053   -0.6393   -1.1394 N.2       1 <0>        -0.4897
      4 C3          0.0228   -1.9686   -1.1817 C.2       1 <0>         0.1063
      5 C4          0.0387   -2.7503   -0.0158 C.2       1 <0>        -0.2492
      6 C5          0.0562   -4.1987   -0.2162 C.2       1 <0>        -0.0497
      7 C6          0.0559   -4.6402   -1.4917 C.2       1 <0>        -0.1703
      8 S1          0.0327   -3.1727   -2.4856 S.3       1 <0>         0.1461
      9 C7          0.0718   -6.0635   -1.9594 C.3       1 <0>        -0.0368
     10 C8          0.4620   -6.9586   -0.7745 C.3       1 <0>        -0.1150
     11 C9         -0.3749   -6.5550    0.4429 C.3       1 <0>        -0.1230
     12 C10         0.0737   -5.1836    0.9496 C.3       1 <0>        -0.0591
     13 C11         0.0351   -2.0226    1.2192 C.2       1 <0>         0.5549
     14 O1          0.0489   -2.6122    2.2860 O.2       1 <0>        -0.5154
     15 N2          0.0224   -0.6771    1.1811 N.am      1 <0>        -0.5267
     16 C12         0.0242    0.0764    2.4375 C.3       1 <0>         0.2032
     17 C13        -1.3628    0.3100    2.8715 C.1       1 <0>        -0.2284
     18 C14        -2.4690    0.4963    3.2177 C.1       1 <0>        -0.1455
     19 H1          1.0042    1.8801    0.0026 H         1 <0>         0.1072
     20 H2         -0.5455    1.8639   -0.8728 H         1 <0>         0.1096
     21 H3         -0.5286    1.8543    0.9071 H         1 <0>         0.0933
     22 H4         -0.9183   -6.3425   -2.3198 H         1 <0>         0.0860
     23 H5          0.8008   -6.1781   -2.7617 H         1 <0>         0.0846
     24 H6          0.2655   -8.0013   -1.0238 H         1 <0>         0.0763
     25 H7          1.5206   -6.8273   -0.5502 H         1 <0>         0.0694
     26 H8         -1.4269   -6.5110    0.1607 H         1 <0>         0.0658
     27 H9         -0.2439   -7.2938    1.2335 H         1 <0>         0.0718
     28 H10         1.0839   -5.2547    1.3526 H         1 <0>         0.0789
     29 H11        -0.6088   -4.8411    1.7274 H         1 <0>         0.0850
     30 H12         0.5531   -0.4930    3.2018 H         1 <0>         0.1260
     31 H13         0.5238    1.0333    2.2865 H         1 <0>         0.1234
     32 H14        -3.4584    0.6630    3.5273 H         1 <0>         0.2244
@<TRIPOS>BOND
     1    1    2 1
     2    1   19 1
     3    1   20 1
     4    1   21 1
     5    2   15 1
     6    2    3 2
     7    3    4 1
     8    4    8 1
     9    4    5 2
    10    5    6 1
    11    5   13 1
    12    6   12 1
    13    6    7 2
    14    7    8 1
    15    7    9 1
    16    9   10 1
    17    9   22 1
    18    9   23 1
    19   10   11 1
    20   10   24 1
    21   10   25 1
    22   11   12 1
    23   11   26 1
    24   11   27 1
    25   12   28 1
    26   12   29 1
    27   13   14 2
    28   13   15 am
    29   15   16 1
    30   16   17 1
    31   16   30 1
    32   16   31 1
    33   17   18 3
    34   18   32 1
@<TRIPOS>MOLECULE
CHEMBL572386
   56    61     0     0     0
SMALL
USER_CHARGES

@<TRIPOS>ATOM
      1 C1         -0.0167    1.3781    0.0096 C.ar      1 <0>        -0.1180
      2 C2          1.1709    2.0855    0.0021 C.ar      1 <0>        -0.1180
      3 C3          2.3773    1.4107   -0.0130 C.ar      1 <0>        -0.1140
      4 C4          2.3960    0.0285   -0.0201 C.ar      1 <0>        -0.0893
      5 C5          1.2084   -0.6789   -0.0117 C.ar      1 <0>        -0.1109
      6 C6          0.0021   -0.0041    0.0020 C.ar      1 <0>        -0.1172
      7 C7          3.7112   -0.7071   -0.0376 C.3       1 <0>        -0.0924
      8 C8          4.1714   -0.9633    1.3989 C.3       1 <0>         0.1338
      9 N1          5.4498   -1.6784    1.3820 N.pl3     1 <0>        -0.3364
     10 C9          6.5698   -1.2759    2.0073 C.2       1 <0>         0.1592
     11 C10         7.5464   -2.2049    1.7572 C.2       1 <0>        -0.2669
     12 C11         6.9384   -3.2424    0.9089 C.2       1 <0>         0.3022
     13 N2          5.6880   -2.8871    0.7171 N.2       1 <0>        -0.2478
     14 N3          7.7095   -4.2904    0.5160 N.2       1 <0>        -0.4472
     15 C12         8.9599   -4.3961    0.8692 C.2       1 <0>         0.6516
     16 N4          9.6091   -3.4825    1.6550 N.pl3     1 <0>        -0.3754
     17 C13         8.9577   -2.3736    2.1253 C.2       1 <0>         0.4111
     18 N5          9.8084   -1.6756    2.8435 N.2       1 <0>        -0.5118
     19 C14        10.9978   -2.2927    2.8583 C.2       1 <0>         0.3455
     20 N6         10.9203   -3.4001    2.1467 N.2       1 <0>        -0.2917
     21 C15        12.2042   -1.8098    3.5620 C.2       1 <0>         0.0427
     22 C16        13.4170   -2.4240    3.5797 C.2       1 <0>        -0.1366
     23 C17        14.2673   -1.6207    4.3652 C.2       1 <0>        -0.2191
     24 C18        13.5393   -0.5669    4.7838 C.2       1 <0>        -0.0048
     25 O1         12.2949   -0.6818    4.2926 O.3       1 <0>        -0.1533
     26 N7          9.6709   -5.4944    0.4250 N.am      1 <0>        -0.6458
     27 C19         9.0693   -6.4180   -0.3505 C.2       1 <0>         0.5071
     28 O2          7.9040   -6.2852   -0.6584 O.2       1 <0>        -0.4317
     29 C20         9.8449   -7.6158   -0.8350 C.3       1 <0>        -0.0931
     30 C21         8.9489   -8.4874   -1.6768 C.ar      1 <0>        -0.0644
     31 C22         8.2059   -9.4914   -1.0838 C.ar      1 <0>        -0.0965
     32 C23         7.3839  -10.2913   -1.8552 C.ar      1 <0>        -0.1044
     33 C24         7.3046  -10.0881   -3.2203 C.ar      1 <0>        -0.1051
     34 C25         8.0477   -9.0838   -3.8141 C.ar      1 <0>        -0.0329
     35 C26         8.8658   -8.2794   -3.0404 C.ar      1 <0>        -0.0927
     36 Cl1         7.9486   -8.8280   -5.5283 Cl        1 <0>        -0.0679
     37 H1         -0.9591    1.9053    0.0259 H         1 <0>         0.1231
     38 H2          1.1563    3.1654    0.0076 H         1 <0>         0.1238
     39 H3          3.3051    1.9634   -0.0196 H         1 <0>         0.1228
     40 H4          1.2231   -1.7588   -0.0176 H         1 <0>         0.1247
     41 H5         -0.9258   -0.5567    0.0082 H         1 <0>         0.1241
     42 H6          3.5884   -1.6586   -0.5549 H         1 <0>         0.0934
     43 H7          4.4573   -0.1052   -0.5563 H         1 <0>         0.0817
     44 H8          4.2941   -0.0118    1.9163 H         1 <0>         0.1102
     45 H9          3.4252   -1.5652    1.9176 H         1 <0>         0.1005
     46 H10         6.6806   -0.3801    2.6004 H         1 <0>         0.2007
     47 H11        13.6781   -3.3490    3.0872 H         1 <0>         0.1607
     48 H12        15.3061   -1.8131    4.5893 H         1 <0>         0.1596
     49 H13        13.8981    0.2384    5.4077 H         1 <0>         0.2139
     50 H14        10.6031   -5.6006    0.6713 H         1 <0>         0.4308
     51 H15        10.6930   -7.2820   -1.4328 H         1 <0>         0.1155
     52 H16        10.2058   -8.1856    0.0213 H         1 <0>         0.1168
     53 H17         8.2681   -9.6510   -0.0175 H         1 <0>         0.1288
     54 H18         6.8038  -11.0753   -1.3915 H         1 <0>         0.1345
     55 H19         6.6628  -10.7136   -3.8230 H         1 <0>         0.1344
     56 H20         9.4428   -7.4923   -3.5029 H         1 <0>         0.1324
@<TRIPOS>BOND
     1    1    6 ar
     2    1    2 ar
     3    1   37 1
     4    2    3 ar
     5    2   38 1
     6    3    4 ar
     7    3   39 1
     8    4    5 ar
     9    4    7 1
    10    5    6 ar
    11    5   40 1
    12    6   41 1
    13    7    8 1
    14    7   42 1
    15    7   43 1
    16    8    9 1
    17    8   44 1
    18    8   45 1
    19    9   13 1
    20    9   10 1
    21   10   11 2
    22   10   46 1
    23   11   17 1
    24   11   12 1
    25   12   13 2
    26   12   14 1
    27   14   15 2
    28   15   16 1
    29   15   26 1
    30   16   20 1
    31   16   17 1
    32   17   18 2
    33   18   19 1
    34   19   20 2
    35   19   21 1
    36   21   25 1
    37   21   22 2
    38   22   23 1
    39   22   47 1
    40   23   24 2
    41   23   48 1
    42   24   25 1
    43   24   49 1
    44   26   27 am
    45   26   50 1
    46   27   28 2
    47   27   29 1
    48   29   30 1
    49   29   51 1
    50   29   52 1
    51   30   35 ar
    52   30   31 ar
    53   31   32 ar
    54   31   53 1
    55   32   33 ar
    56   32   54 1
    57   33   34 ar
    58   33   55 1
    59   34   35 ar
    60   34   36 1
    61   35   56 1
@<TRIPOS>MOLECULE
CHEMBL272637
   63    66     0     0     0
SMALL
USER_CHARGES

@<TRIPOS>ATOM
      1 C1          1.1192    1.4694    0.3603 C.3       1 <0>        -0.0711
      2 C2          1.0042   -0.0324    0.3114 C.2       1 <0>        -0.0094
      3 C3         -0.1480   -0.7313    0.2581 C.2       1 <0>        -0.2211
      4 C4          0.1977   -2.0952    0.2254 C.2       1 <0>        -0.1329
      5 C5          1.5566   -2.1560    0.2609 C.2       1 <0>         0.0389
      6 O1          2.0312   -0.8956    0.3079 O.3       1 <0>        -0.1567
      7 C6          2.3694   -3.3875    0.2451 C.ar      1 <0>         0.4176
      8 N1          1.7584   -4.5647    0.1863 N.ar      1 <0>        -0.5037
      9 C7          2.4624   -5.6964    0.1700 C.ar      1 <0>         0.4242
     10 C8          3.8595   -5.6278    0.2158 C.ar      1 <0>        -0.2417
     11 C9          4.4589   -4.3752    0.2768 C.ar      1 <0>         0.3988
     12 N2          3.6933   -3.2894    0.2846 N.ar      1 <0>        -0.5804
     13 N3          5.8497   -4.2593    0.3240 N.pl3     1 <0>        -0.3135
     14 C10         6.5776   -3.1840   -0.0766 C.2       1 <0>         0.1152
     15 C11         7.8823   -3.4718    0.1339 C.2       1 <0>        -0.2776
     16 C12         7.9582   -4.7591    0.6787 C.2       1 <0>         0.0777
     17 N4          6.7432   -5.2284    0.7984 N.2       1 <0>        -0.2814
     18 C13         9.2238   -5.4788    1.0675 C.3       1 <0>        -0.0688
     19 C14         6.0303   -1.9030   -0.6516 C.3       1 <0>        -0.0843
     20 N5          1.8288   -6.9070    0.1098 N.2       1 <0>        -0.6318
     21 C15         0.5290   -6.9598    0.0680 C.2       1 <0>         0.4094
     22 O2         -0.1919   -5.8225    0.0840 O.3       1 <0>        -0.6550
     23 C16        -0.1692   -8.2936    0.0017 C.3       1 <0>         0.0864
     24 N6          0.8306   -9.3699   -0.0036 N.3       1 <0>        -0.4962
     25 C17         1.5904   -9.3810   -1.2718 C.3       1 <0>         0.0604
     26 C18         1.8983  -10.8761   -1.5355 C.3       1 <0>        -0.1456
     27 C19         0.5968  -11.5569   -1.0361 C.3       1 <0>        -0.1433
     28 H1         -0.1730  -11.5291   -1.8074 H         1 <0>         0.0960
     29 C20         0.1906  -10.6865    0.1717 C.3       1 <0>         0.0502
     30 C21         0.8724  -12.9976   -0.6013 C.3       1 <0>         0.0023
     31 N7          1.3227  -13.7811   -1.7595 N.4       1 <0>        -0.3882
     32 C22         1.7240  -15.1230   -1.3167 C.3       1 <0>        -0.0463
     33 C23         0.2264  -13.8934   -2.7308 C.3       1 <0>        -0.0508
     34 H2          2.1714    1.7523    0.3931 H         1 <0>         0.0748
     35 H3          0.6551    1.8984   -0.5278 H         1 <0>         0.0841
     36 H4          0.6144    1.8436    1.2509 H         1 <0>         0.0842
     37 H5         -1.1472   -0.3217    0.2433 H         1 <0>         0.1490
     38 H6         -0.4838   -2.9319    0.1810 H         1 <0>         0.1652
     39 H7          4.4577   -6.5269    0.2045 H         1 <0>         0.1399
     40 H8          8.7183   -2.8226   -0.0806 H         1 <0>         0.1502
     41 H9          9.4638   -5.2559    2.1071 H         1 <0>         0.0769
     42 H10         9.0817   -6.5530    0.9497 H         1 <0>         0.0717
     43 H11        10.0413   -5.1480    0.4269 H         1 <0>         0.0776
     44 H12         5.8329   -1.1976    0.1555 H         1 <0>         0.0835
     45 H13         6.7584   -1.4734   -1.3397 H         1 <0>         0.0749
     46 H14         5.1038   -2.1116   -1.1866 H         1 <0>         0.0802
     47 H15        -0.8200   -8.4066    0.8688 H         1 <0>         0.0875
     48 H16        -0.7652   -8.3469   -0.9094 H         1 <0>         0.0468
     49 H17         0.9857   -8.9698   -2.0801 H         1 <0>         0.0418
     50 H18         2.5164   -8.8161   -1.1644 H         1 <0>         0.1107
     51 H19         2.0529  -11.0614   -2.5984 H         1 <0>         0.0724
     52 H20         2.7593  -11.2059   -0.9540 H         1 <0>         0.0851
     53 H21         0.5393  -11.1483    1.0955 H         1 <0>         0.0815
     54 H22        -0.8930  -10.5715    0.1982 H         1 <0>         0.0623
     55 H23         1.6474  -13.0039    0.1651 H         1 <0>         0.1346
     56 H24        -0.0405  -13.4365   -0.1985 H         1 <0>         0.1292
     57 H25         0.8818  -15.6107   -0.8259 H         1 <0>         0.1205
     58 H26         2.0330  -15.7130   -2.1796 H         1 <0>         0.1215
     59 H27         2.5551  -15.0411   -0.6162 H         1 <0>         0.1233
     60 H28        -0.0714  -12.8976   -3.0593 H         1 <0>         0.1236
     61 H29         0.5606  -14.4747   -3.5902 H         1 <0>         0.1217
     62 H30        -0.6233  -14.3911   -2.2637 H         1 <0>         0.1212
     63 H31         2.1093  -13.3203   -2.1919 H         1 <0>         0.4268
@<TRIPOS>BOND
     1    1    2 1
     2    1   34 1
     3    1   35 1
     4    1   36 1
     5    2    6 1
     6    2    3 2
     7    3    4 1
     8    3   37 1
     9    4    5 2
    10    4   38 1
    11    5    6 1
    12    5    7 1
    13    7   12 ar
    14    7    8 ar
    15    8    9 ar
    16    9   10 ar
    17    9   20 1
    18   10   11 ar
    19   10   39 1
    20   11   12 ar
    21   11   13 1
    22   13   17 1
    23   13   14 1
    24   14   15 2
    25   14   19 1
    26   15   16 1
    27   15   40 1
    28   16   17 2
    29   16   18 1
    30   18   41 1
    31   18   42 1
    32   18   43 1
    33   19   44 1
    34   19   45 1
    35   19   46 1
    36   20   21 2
    37   21   22 1
    38   21   23 1
    39   23   24 1
    40   23   47 1
    41   23   48 1
    42   24   29 1
    43   24   25 1
    44   25   26 1
    45   25   49 1
    46   25   50 1
    47   26   27 1
    48   26   51 1
    49   26   52 1
    50   27   28 1
    51   27   29 1
    52   27   30 1
    53   29   53 1
    54   29   54 1
    55   30   31 1
    56   30   55 1
    57   30   56 1
    58   31   32 1
    59   31   33 1
    60   31   63 1
    61   32   57 1
    62   32   58 1
    63   32   59 1
    64   33   60 1
    65   33   61 1
    66   33   62 1
@<TRIPOS>MOLECULE
CHEMBL282888
   55    60     0     0     0
SMALL
USER_CHARGES

@<TRIPOS>ATOM
      1 C1         -0.0162    1.3433    0.0094 C.2       1 <0>        -0.2200
      2 C2          1.3252    1.7744   -0.0011 C.2       1 <0>        -0.1377
      3 C3          2.0962    0.6548   -0.0144 C.2       1 <0>         0.0431
      4 O1          1.2797   -0.4166   -0.0124 O.3       1 <0>        -0.1520
      5 C4          0.0021   -0.0041    0.0020 C.2       1 <0>        -0.0045
      6 C5          3.5736    0.6193   -0.0287 C.2       1 <0>         0.3499
      7 N1          4.3223   -0.4908   -0.0472 N.2       1 <0>        -0.5166
      8 C6          5.5979   -0.1638   -0.0558 C.2       1 <0>         0.4067
      9 C7          6.8494   -0.9218   -0.0750 C.2       1 <0>        -0.2677
     10 C8          7.1770   -2.2895   -0.0925 C.2       1 <0>         0.1301
     11 N2          8.4769   -2.4024   -0.1057 N.2       1 <0>        -0.2624
     12 N3          9.0564   -1.1275   -0.0976 N.pl3     1 <0>        -0.3533
     13 C9          8.0548   -0.2036   -0.0786 C.2       1 <0>         0.3703
     14 N4          8.0263    1.1363   -0.0638 N.2       1 <0>        -0.5603
     15 C10         6.9037    1.8122   -0.0459 C.2       1 <0>         0.6913
     16 N5          5.6820    1.2042   -0.0426 N.pl3     1 <0>        -0.3762
     17 N6          4.3634    1.6766   -0.0311 N.2       1 <0>        -0.3000
     18 N7          6.9590    3.1863   -0.0316 N.pl3     1 <0>        -0.8025
     19 C11        10.4923   -0.8370   -0.1068 C.3       1 <0>         0.1369
     20 C12        10.9797   -0.7205   -1.5524 C.3       1 <0>        -0.1321
     21 C13        12.4793   -0.4171   -1.5620 C.3       1 <0>        -0.0690
     22 C14        12.9595   -0.3024   -2.9859 C.ar      1 <0>        -0.0772
     23 C15        13.4114   -1.4252   -3.6540 C.ar      1 <0>        -0.1067
     24 C16        13.8523   -1.3251   -4.9603 C.ar      1 <0>        -0.1001
     25 C17        13.8428   -0.0979   -5.6033 C.ar      1 <0>         0.0508
     26 C18        13.3876    1.0332   -4.9302 C.ar      1 <0>         0.0526
     27 C19        12.9418    0.9243   -3.6230 C.ar      1 <0>        -0.0981
     28 O2         13.4772    2.1058   -5.7696 O.3       1 <0>        -0.2893
     29 C20        14.3712    1.6970   -6.8218 C.3       1 <0>         0.2654
     30 O3         14.2175    0.2660   -6.8644 O.3       1 <0>        -0.2866
     31 C21        15.8139    2.0728   -6.4776 C.3       1 <0>         0.0467
     32 O4         16.1933    1.4364   -5.2557 O.3       1 <0>        -0.5552
     33 C22        13.9546    2.3224   -8.1545 C.3       1 <0>         0.0871
     34 O5         12.6228    1.9158   -8.4758 O.3       1 <0>        -0.5532
     35 H1         -0.8931    1.9736    0.0252 H         1 <0>         0.1593
     36 H2          1.6736    2.7966    0.0006 H         1 <0>         0.1598
     37 H3         -0.8667   -0.6456    0.0076 H         1 <0>         0.2141
     38 H4          6.4721   -3.1077   -0.0946 H         1 <0>         0.2020
     39 H5          7.8178    3.6373   -0.0348 H         1 <0>         0.4303
     40 H6          6.1392    3.7046   -0.0183 H         1 <0>         0.4261
     41 H7         10.6764    0.1019    0.4155 H         1 <0>         0.1006
     42 H8         11.0292   -1.6426    0.3939 H         1 <0>         0.1036
     43 H9         10.7956   -1.6593   -2.0747 H         1 <0>         0.0776
     44 H10        10.4428    0.0852   -2.0531 H         1 <0>         0.0723
     45 H11        12.6634    0.5217   -1.0397 H         1 <0>         0.0788
     46 H12        13.0163   -1.2228   -1.0613 H         1 <0>         0.0820
     47 H13        13.4202   -2.3825   -3.1541 H         1 <0>         0.1356
     48 H14        14.2048   -2.2039   -5.4798 H         1 <0>         0.1317
     49 H15        12.5840    1.7990   -3.1001 H         1 <0>         0.1298
     50 H16        16.4758    1.7446   -7.2790 H         1 <0>         0.0756
     51 H17        15.8903    3.1540   -6.3632 H         1 <0>         0.0755
     52 H18        17.0983    1.6304   -4.9757 H         1 <0>         0.3873
     53 H19        13.9933    3.4088   -8.0740 H         1 <0>         0.0797
     54 H20        14.6348    1.9918   -8.9394 H         1 <0>         0.0797
     55 H21        12.2922    2.2758   -9.3102 H         1 <0>         0.3887
@<TRIPOS>BOND
     1    1    5 2
     2    1    2 1
     3    1   35 1
     4    2    3 2
     5    2   36 1
     6    3    4 1
     7    3    6 1
     8    4    5 1
     9    5   37 1
    10    6   17 2
    11    6    7 1
    12    7    8 2
    13    8   16 1
    14    8    9 1
    15    9   13 2
    16    9   10 1
    17   10   11 2
    18   10   38 1
    19   11   12 1
    20   12   13 1
    21   12   19 1
    22   13   14 1
    23   14   15 2
    24   15   16 1
    25   15   18 1
    26   16   17 1
    27   18   39 1
    28   18   40 1
    29   19   20 1
    30   19   41 1
    31   19   42 1
    32   20   21 1
    33   20   43 1
    34   20   44 1
    35   21   22 1
    36   21   45 1
    37   21   46 1
    38   22   27 ar
    39   22   23 ar
    40   23   24 ar
    41   23   47 1
    42   24   25 ar
    43   24   48 1
    44   25   30 1
    45   25   26 ar
    46   26   27 ar
    47   26   28 1
    48   27   49 1
    49   28   29 1
    50   29   30 1
    51   29   31 1
    52   29   33 1
    53   31   32 1
    54   31   50 1
    55   31   51 1
    56   32   52 1
    57   33   34 1
    58   33   53 1
    59   33   54 1
    60   34   55 1
@<TRIPOS>MOLECULE
CHEMBL605241
   61    64     0     0     0
SMALL
USER_CHARGES

@<TRIPOS>ATOM
      1 C1         -0.0187    1.5258    0.0104 C.3       1 <0>        -0.1670
      2 C2          0.0021   -0.0041    0.0020 C.3       1 <0>         0.1127
      3 N1         -1.3723   -0.5112    0.0124 N.am      1 <0>        -0.7283
      4 C3         -1.6006   -1.8394    0.0075 C.2       1 <0>         0.4959
      5 O1         -0.6682   -2.6149   -0.0056 O.2       1 <0>        -0.5067
      6 C4         -3.0144   -2.3611    0.0182 C.3       1 <0>         0.0429
      7 H1         -3.5693   -1.9423   -0.8214 H         1 <0>         0.1288
      8 C5         -3.7041   -1.9776    1.3451 C.3       1 <0>         0.0517
      9 H2         -2.9665   -1.7866    2.1246 H         1 <0>         0.0965
     10 C6         -4.5311   -3.2521    1.6670 C.3       1 <0>         0.0775
     11 H3         -4.6779   -3.3642    2.7412 H         1 <0>         0.1034
     12 C7         -3.5965   -4.3569    1.1129 C.3       1 <0>         0.3197
     13 O2         -3.0056   -3.7907   -0.0698 O.3       1 <0>        -0.3324
     14 N2         -4.3702   -5.5529    0.7708 N.pl3     1 <0>        -0.4597
     15 C8         -4.8574   -5.8736   -0.4614 C.2       1 <0>         0.2904
     16 N3         -5.4969   -7.0060   -0.4063 N.2       1 <0>        -0.4645
     17 C9         -5.4615   -7.4834    0.8604 C.ar      1 <0>        -0.0958
     18 C10        -4.7327   -6.5595    1.6308 C.ar      1 <0>         0.3108
     19 N4         -4.5454   -6.7990    2.9224 N.ar      1 <0>        -0.5408
     20 C11        -5.0353   -7.8963    3.4830 C.ar      1 <0>         0.4974
     21 N5         -5.7270   -8.7977    2.7912 N.ar      1 <0>        -0.5723
     22 C12        -5.9674   -8.6313    1.4969 C.ar      1 <0>         0.5142
     23 N6         -6.6869   -9.5751    0.7848 N.pl3     1 <0>        -0.8143
     24 C13        -4.8118   -8.1187    4.8798 C.1       1 <0>        -0.1138
     25 C14        -4.6286   -8.3010    6.0250 C.1       1 <0>        -0.0878
     26 C15        -4.3989   -8.5296    7.4609 C.3       1 <0>        -0.0067
     27 C16        -5.0522   -9.8486    7.8783 C.3       1 <0>         0.0648
     28 O3         -4.8292  -10.0705    9.2722 O.3       1 <0>        -0.3647
     29 C17        -5.4018  -11.2828    9.7667 C.3       1 <0>         0.2578
     30 C18        -5.3210  -11.2992   11.2954 C.3       1 <0>        -0.1410
     31 C19        -5.8814  -12.6270   11.8143 C.3       1 <0>        -0.1213
     32 C20        -5.1008  -13.7814   11.1784 C.3       1 <0>        -0.1614
     33 C21        -5.1901  -13.6691    9.6543 C.3       1 <0>         0.0715
     34 O4         -4.6813  -12.3993    9.2409 O.3       1 <0>        -0.4055
     35 O5         -5.7828   -3.2417    0.9776 O.3       1 <0>        -0.5333
     36 O6         -4.5567   -0.8449    1.1663 O.3       1 <0>        -0.5370
     37 H4          1.0039    1.9031    0.0027 H         1 <0>         0.0783
     38 H5         -0.5459    1.8868   -0.8726 H         1 <0>         0.0638
     39 H6         -0.5289    1.8773    0.9072 H         1 <0>         0.0631
     40 H7          0.5123   -0.3556   -0.8948 H         1 <0>         0.0718
     41 H8          0.5293   -0.3651    0.8851 H         1 <0>         0.0713
     42 H9         -2.1181    0.1091    0.0229 H         1 <0>         0.3971
     43 H10        -2.8246   -4.6006    1.8429 H         1 <0>         0.1319
     44 H11        -4.7318   -5.2758   -1.3520 H         1 <0>         0.2228
     45 H12        -6.8470   -9.4488   -0.1635 H         1 <0>         0.4213
     46 H13        -7.0310  -10.3630    1.2340 H         1 <0>         0.4117
     47 H14        -3.3272   -8.5777    7.6543 H         1 <0>         0.1062
     48 H15        -4.8350   -7.7109    8.0335 H         1 <0>         0.1046
     49 H16        -6.1238   -9.8004    7.6849 H         1 <0>         0.0573
     50 H17        -4.6161  -10.6672    7.3057 H         1 <0>         0.0671
     51 H18        -6.4450  -11.3449    9.4570 H         1 <0>         0.0550
     52 H19        -4.2813  -11.1964   11.6063 H         1 <0>         0.0821
     53 H20        -5.9065  -10.4737   11.7000 H         1 <0>         0.0821
     54 H21        -5.7756  -12.6687   12.8983 H         1 <0>         0.0765
     55 H22        -6.9348  -12.7078   11.5461 H         1 <0>         0.0663
     56 H23        -4.0567  -13.7287   11.4870 H         1 <0>         0.0753
     57 H24        -5.5289  -14.7310   11.4994 H         1 <0>         0.0782
     58 H25        -4.6009  -14.4634    9.1961 H         1 <0>         0.0986
     59 H26        -6.2306  -13.7625    9.3432 H         1 <0>         0.0521
     60 H27        -6.3572   -2.5014    1.2166 H         1 <0>         0.3955
     61 H28        -4.0940   -0.0456    0.8797 H         1 <0>         0.3878
@<TRIPOS>BOND
     1    1    2 1
     2    1   37 1
     3    1   38 1
     4    1   39 1
     5    2    3 1
     6    2   40 1
     7    2   41 1
     8    3    4 am
     9    3   42 1
    10    4    5 2
    11    4    6 1
    12    6    7 1
    13    6   13 1
    14    6    8 1
    15    8    9 1
    16    8   10 1
    17    8   36 1
    18   10   11 1
    19   10   12 1
    20   10   35 1
    21   12   13 1
    22   12   14 1
    23   12   43 1
    24   14   18 1
    25   14   15 1
    26   15   16 2
    27   15   44 1
    28   16   17 1
    29   17   22 ar
    30   17   18 ar
    31   18   19 ar
    32   19   20 ar
    33   20   21 ar
    34   20   24 1
    35   21   22 ar
    36   22   23 1
    37   23   45 1
    38   23   46 1
    39   24   25 3
    40   25   26 1
    41   26   27 1
    42   26   47 1
    43   26   48 1
    44   27   28 1
    45   27   49 1
    46   27   50 1
    47   28   29 1
    48   29   34 1
    49   29   30 1
    50   29   51 1
    51   30   31 1
    52   30   52 1
    53   30   53 1
    54   31   32 1
    55   31   54 1
    56   31   55 1
    57   32   33 1
    58   32   56 1
    59   32   57 1
    60   33   34 1
    61   33   58 1
    62   33   59 1
    63   35   60 1
    64   36   61 1
@<TRIPOS>MOLECULE
CHEMBL260718
   35    38     0     0     0
SMALL
USER_CHARGES

@<TRIPOS>ATOM
      1 C1         -0.0170    1.4020    0.0098 C.2       1 <0>        -0.1691
      2 C2          1.1374    2.0950    0.0024 C.2       1 <0>        -0.1108
      3 S1          2.3759    0.8095   -0.0163 S.3       1 <0>         0.1335
      4 C3          1.2886   -0.5906   -0.0135 C.ar      1 <0>        -0.2700
      5 C4          0.0021   -0.0041    0.0020 C.ar      1 <0>         0.2226
      6 N1         -1.0380   -0.8717    0.0069 N.ar      1 <0>        -0.5460
      7 C5         -0.8462   -2.1730   -0.0023 C.ar      1 <0>         0.6012
      8 N2          0.3544   -2.7346   -0.0164 N.ar      1 <0>        -0.5325
      9 C6          1.4500   -1.9677   -0.0228 C.ar      1 <0>         0.3575
     10 C7          2.7972   -2.5722   -0.0394 C.2       1 <0>         0.1162
     11 N3          3.9847   -1.9815   -0.0417 N.2       1 <0>        -0.4668
     12 C8          5.0928   -2.6798   -0.0568 C.2       1 <0>         0.0239
     13 C9          5.0367   -4.0406   -0.0705 C.2       1 <0>        -0.1914
     14 S2          3.2668   -4.2974   -0.0537 S.3       1 <0>         0.0932
     15 N4         -1.9584   -3.0009    0.0034 N.pl3     1 <0>        -0.5798
     16 C10        -1.9324   -4.4749    0.0013 C.3       1 <0>         0.1257
     17 C11        -3.2960   -4.8947   -0.6021 C.3       1 <0>        -0.1334
     18 C12        -4.2435   -3.8186   -0.0093 C.3       1 <0>        -0.1271
     19 C13        -3.3591   -2.5542    0.0192 C.3       1 <0>         0.1576
     20 H1         -3.5627   -1.9418   -0.8592 H         1 <0>         0.0881
     21 C14        -3.6349   -1.7514    1.2921 C.3       1 <0>         0.0605
     22 O1         -3.5021   -2.6041    2.4312 O.3       1 <0>        -0.5679
     23 H2         -0.9603    1.9276    0.0261 H         1 <0>         0.1491
     24 H3          1.2793    3.1656    0.0066 H         1 <0>         0.2021
     25 H4          6.0489   -2.1776   -0.0588 H         1 <0>         0.1766
     26 H5          5.8386   -4.7640   -0.0837 H         1 <0>         0.2056
     27 H6         -1.1143   -4.8390   -0.6203 H         1 <0>         0.0791
     28 H7         -1.8348   -4.8541    1.0185 H         1 <0>         0.0700
     29 H8         -3.2750   -4.8400   -1.6906 H         1 <0>         0.0754
     30 H9         -3.5804   -5.8925   -0.2681 H         1 <0>         0.0876
     31 H10        -5.1105   -3.6712   -0.6532 H         1 <0>         0.0823
     32 H11        -4.5531   -4.0911    0.9997 H         1 <0>         0.0910
     33 H12        -2.9204   -0.9316    1.3667 H         1 <0>         0.0652
     34 H13        -4.6472   -1.3489    1.2556 H         1 <0>         0.0534
     35 H14        -3.6635   -2.1608    3.2753 H         1 <0>         0.3776
@<TRIPOS>BOND
     1    1    5 1
     2    1    2 2
     3    1   23 1
     4    2    3 1
     5    2   24 1
     6    3    4 1
     7    4    9 ar
     8    4    5 ar
     9    5    6 ar
    10    6    7 ar
    11    7    8 ar
    12    7   15 1
    13    8    9 ar
    14    9   10 1
    15   10   14 1
    16   10   11 2
    17   11   12 1
    18   12   13 2
    19   12   25 1
    20   13   14 1
    21   13   26 1
    22   15   19 1
    23   15   16 1
    24   16   17 1
    25   16   27 1
    26   16   28 1
    27   17   18 1
    28   17   29 1
    29   17   30 1
    30   18   19 1
    31   18   31 1
    32   18   32 1
    33   19   20 1
    34   19   21 1
    35   21   22 1
    36   21   33 1
    37   21   34 1
    38   22   35 1
@<TRIPOS>MOLECULE
CHEMBL608298
   56    59     0     0     0
SMALL
USER_CHARGES

@<TRIPOS>ATOM
      1 C1         -0.0164    1.3590    0.0095 C.2       1 <0>         0.2861
      2 N1          1.2006    1.8206    0.0004 N.2       1 <0>        -0.4658
      3 C2          2.0754    0.7871   -0.0135 C.ar      1 <0>        -0.0984
      4 C3          3.4784    0.6816   -0.0279 C.ar      1 <0>         0.5128
      5 N2          4.0240   -0.5276   -0.0400 N.ar      1 <0>        -0.5741
      6 C4          3.2683   -1.6225   -0.0386 C.ar      1 <0>         0.4969
      7 N3          1.9438   -1.5670   -0.0257 N.ar      1 <0>        -0.5418
      8 C5          1.3171   -0.3971   -0.0127 C.ar      1 <0>         0.3124
      9 N4          0.0021   -0.0041    0.0020 N.pl3     1 <0>        -0.4619
     10 C6         -1.1668   -0.8871    0.0089 C.3       1 <0>         0.3134
     11 C7         -1.5287   -1.2882   -1.4374 C.3       1 <0>         0.0763
     12 H1         -1.1656   -2.2906   -1.6643 H         1 <0>         0.0991
     13 C8         -3.0811   -1.2558   -1.4098 C.3       1 <0>         0.0478
     14 H2         -3.4868   -2.1907   -1.0232 H         1 <0>         0.0938
     15 C9         -3.3334   -0.0875   -0.4237 C.3       1 <0>         0.0510
     16 H3         -3.2630    0.8680   -0.9433 H         1 <0>         0.0989
     17 O1         -2.2939   -0.1972    0.5615 O.3       1 <0>        -0.3457
     18 C10        -4.7077   -0.2340    0.2327 C.3       1 <0>         0.0780
     19 O2         -4.9705    0.9098    1.0480 O.3       1 <0>        -0.5628
     20 O3         -3.6132   -0.9631   -2.7033 O.3       1 <0>        -0.5424
     21 O4         -1.0127   -0.3390   -2.3726 O.3       1 <0>        -0.5347
     22 C11         3.9070   -2.9041   -0.0520 C.1       1 <0>        -0.1276
     23 C12         4.4307   -3.9548   -0.0630 C.1       1 <0>        -0.0878
     24 C13         5.0872   -5.2722   -0.0768 C.3       1 <0>        -0.0125
     25 C14         4.0237   -6.3721   -0.0724 C.3       1 <0>        -0.1126
     26 C15         4.7062   -7.7414   -0.0867 C.3       1 <0>        -0.0869
     27 C16         5.4664   -7.9187   -1.4026 C.3       1 <0>        -0.1188
     28 C17         6.1488   -9.2880   -1.4169 C.3       1 <0>        -0.1206
     29 C18         5.0915  -10.3861   -1.2869 C.3       1 <0>        -0.1213
     30 C19         4.3312  -10.2089    0.0290 C.3       1 <0>        -0.1203
     31 C20         3.6488   -8.8396    0.0433 C.3       1 <0>        -0.1151
     32 N5          4.2724    1.8152   -0.0299 N.pl3     1 <0>        -0.8156
     33 H4         -0.9093    1.9664    0.0254 H         1 <0>         0.2180
     34 H5         -0.9533   -1.7785    0.5988 H         1 <0>         0.1370
     35 H6         -5.4727   -0.3132   -0.5397 H         1 <0>         0.0640
     36 H7         -4.7212   -1.1317    0.8509 H         1 <0>         0.0593
     37 H8         -5.8270    0.8849    1.4962 H         1 <0>         0.3859
     38 H9         -4.5793   -0.9327   -2.7335 H         1 <0>         0.3905
     39 H10        -1.2137   -0.5468   -3.2954 H         1 <0>         0.3941
     40 H11         5.7004   -5.3632   -0.9733 H         1 <0>         0.0966
     41 H12         5.7179   -5.3731    0.8065 H         1 <0>         0.0944
     42 H13         3.4106   -6.2811    0.8241 H         1 <0>         0.0698
     43 H14         3.3931   -6.2713   -0.9557 H         1 <0>         0.0699
     44 H15         5.4040   -7.8083    0.7479 H         1 <0>         0.0730
     45 H16         4.7685   -7.8518   -2.2373 H         1 <0>         0.0631
     46 H17         6.2197   -7.1363   -1.4953 H         1 <0>         0.0644
     47 H18         6.6904   -9.4142   -2.3544 H         1 <0>         0.0605
     48 H19         6.8467   -9.3549   -0.5823 H         1 <0>         0.0612
     49 H20         4.3936  -10.3192   -2.1215 H         1 <0>         0.0608
     50 H21         5.5776  -11.3617   -1.2971 H         1 <0>         0.0595
     51 H22         3.5780  -10.9913    0.1216 H         1 <0>         0.0606
     52 H23         5.0291  -10.2758    0.8636 H         1 <0>         0.0610
     53 H24         3.1072   -8.7134    0.9808 H         1 <0>         0.0621
     54 H25         2.9509   -8.7727   -0.7913 H         1 <0>         0.0626
     55 H26         3.8626    2.6943   -0.0213 H         1 <0>         0.4207
     56 H27         5.2386    1.7306   -0.0398 H         1 <0>         0.4111
@<TRIPOS>BOND
     1    1    9 1
     2    1    2 2
     3    1   33 1
     4    2    3 1
     5    3    8 ar
     6    3    4 ar
     7    4    5 ar
     8    4   32 1
     9    5    6 ar
    10    6    7 ar
    11    6   22 1
    12    7    8 ar
    13    8    9 1
    14    9   10 1
    15   10   17 1
    16   10   11 1
    17   10   34 1
    18   11   12 1
    19   11   13 1
    20   11   21 1
    21   13   14 1
    22   13   15 1
    23   13   20 1
    24   15   16 1
    25   15   17 1
    26   15   18 1
    27   18   19 1
    28   18   35 1
    29   18   36 1
    30   19   37 1
    31   20   38 1
    32   21   39 1
    33   22   23 3
    34   23   24 1
    35   24   25 1
    36   24   40 1
    37   24   41 1
    38   25   26 1
    39   25   42 1
    40   25   43 1
    41   26   31 1
    42   26   27 1
    43   26   44 1
    44   27   28 1
    45   27   45 1
    46   27   46 1
    47   28   29 1
    48   28   47 1
    49   28   48 1
    50   29   30 1
    51   29   49 1
    52   29   50 1
    53   30   31 1
    54   30   51 1
    55   30   52 1
    56   31   53 1
    57   31   54 1
    58   32   55 1
    59   32   56 1
@<TRIPOS>MOLECULE
CHEMBL489592
   48    50     0     0     0
SMALL
USER_CHARGES

@<TRIPOS>ATOM
      1 C1         -0.0187    1.5258    0.0104 C.3       1 <0>        -0.1675
      2 C2          0.0021   -0.0041    0.0020 C.3       1 <0>         0.1163
      3 N1         -1.3723   -0.5112    0.0124 N.am      1 <0>        -0.5089
      4 C3         -2.0125   -0.7519    1.2189 C.2       1 <0>         0.3261
      5 C4         -3.3196   -1.2335    1.1995 C.2       1 <0>        -0.1524
      6 C5         -3.9494   -1.4607   -0.0413 C.2       1 <0>         0.5947
      7 O1         -5.0921   -1.8812   -0.0842 O.2       1 <0>        -0.5141
      8 N2         -3.2730   -1.2069   -1.1805 N.am      1 <0>        -0.5494
      9 C6         -2.0140   -0.7375   -1.1491 C.2       1 <0>         0.7080
     10 O2         -1.4380   -0.5162   -2.1969 O.2       1 <0>        -0.5319
     11 C7         -3.9230   -1.4413   -2.4724 C.3       1 <0>         0.1108
     12 C8         -4.6480   -0.1694   -2.9167 C.3       1 <0>        -0.1666
     13 N3         -3.7044   -1.3810    2.5192 N.pl3     1 <0>        -0.4105
     14 C9         -2.6409   -0.9923    3.2846 C.2       1 <0>         0.3240
     15 N4         -1.6474   -0.6228    2.4916 N.2       1 <0>        -0.4899
     16 C10        -2.6062   -0.9851    4.7457 C.2       1 <0>        -0.1225
     17 C11        -1.4891   -0.5763    5.3951 C.2       1 <0>        -0.0323
     18 C12        -1.4557   -0.5693    6.8078 C.2       1 <0>        -0.1458
     19 C13        -0.3414   -0.1615    7.4554 C.2       1 <0>        -0.0644
     20 C14        -0.3066   -0.1542    8.9259 C.ar      1 <0>        -0.0719
     21 C15        -1.4225   -0.5739    9.6578 C.ar      1 <0>        -0.1065
     22 C16        -1.3818   -0.5641   11.0359 C.ar      1 <0>        -0.1212
     23 C17        -0.2412   -0.1399   11.6953 C.ar      1 <0>        -0.1122
     24 C18         0.8669    0.2773   10.9785 C.ar      1 <0>        -0.1212
     25 C19         0.8446    0.2671    9.5999 C.ar      1 <0>        -0.1011
     26 C20        -5.0013   -1.8603    3.0035 C.3       1 <0>         0.0701
     27 H1          1.0039    1.9031    0.0027 H         1 <0>         0.0779
     28 H2         -0.5459    1.8868   -0.8726 H         1 <0>         0.0611
     29 H3         -0.5289    1.8773    0.9072 H         1 <0>         0.0609
     30 H4          0.5123   -0.3556   -0.8948 H         1 <0>         0.1000
     31 H5          0.5293   -0.3651    0.8851 H         1 <0>         0.0978
     32 H6         -3.1706   -1.7087   -3.2144 H         1 <0>         0.1028
     33 H7         -4.6423   -2.2544   -2.3749 H         1 <0>         0.1011
     34 H8         -5.1316   -0.3438   -3.8779 H         1 <0>         0.0795
     35 H9         -5.4004    0.0980   -2.1747 H         1 <0>         0.0601
     36 H10        -3.9287    0.6437   -3.0142 H         1 <0>         0.0623
     37 H11        -3.4709   -1.3055    5.3080 H         1 <0>         0.1402
     38 H12        -0.6245   -0.2558    4.8328 H         1 <0>         0.1336
     39 H13        -2.3203   -0.8897    7.3700 H         1 <0>         0.1227
     40 H14         0.5232    0.1589    6.8931 H         1 <0>         0.1278
     41 H15        -2.3135   -0.9045    9.1447 H         1 <0>         0.1263
     42 H16        -2.2425   -0.8878   11.6024 H         1 <0>         0.1249
     43 H17        -0.2157   -0.1342   12.7750 H         1 <0>         0.1238
     44 H18         1.7531    0.6071   11.5003 H         1 <0>         0.1255
     45 H19         1.7118    0.5880    9.0419 H         1 <0>         0.1268
     46 H20        -4.9682   -2.9436    3.1192 H         1 <0>         0.0876
     47 H21        -5.2231   -1.3987    3.9657 H         1 <0>         0.0958
     48 H22        -5.7777   -1.5952    2.2858 H         1 <0>         0.1019
@<TRIPOS>BOND
     1    1    2 1
     2    1   27 1
     3    1   28 1
     4    1   29 1
     5    2    3 1
     6    2   30 1
     7    2   31 1
     8    3    9 am
     9    3    4 1
    10    4   15 1
    11    4    5 2
    12    5    6 1
    13    5   13 1
    14    6    7 2
    15    6    8 am
    16    8    9 am
    17    8   11 1
    18    9   10 2
    19   11   12 1
    20   11   32 1
    21   11   33 1
    22   12   34 1
    23   12   35 1
    24   12   36 1
    25   13   14 1
    26   13   26 1
    27   14   15 2
    28   14   16 1
    29   16   17 2
    30   16   37 1
    31   17   18 1
    32   17   38 1
    33   18   19 2
    34   18   39 1
    35   19   20 1
    36   19   40 1
    37   20   25 ar
    38   20   21 ar
    39   21   22 ar
    40   21   41 1
    41   22   23 ar
    42   22   42 1
    43   23   24 ar
    44   23   43 1
    45   24   25 ar
    46   24   44 1
    47   25   45 1
    48   26   46 1
    49   26   47 1
    50   26   48 1
@<TRIPOS>MOLECULE
CHEMBL291471
   64    67     0     0     0
SMALL
USER_CHARGES

@<TRIPOS>ATOM
      1 C1         -0.0187    1.5258    0.0104 C.3       1 <0>        -0.1665
      2 C2          0.0021   -0.0041    0.0020 C.3       1 <0>         0.1129
      3 N1         -1.3723   -0.5112    0.0124 N.am      1 <0>        -0.7295
      4 C3         -1.6006   -1.8394    0.0075 C.2       1 <0>         0.4959
      5 O1         -0.6682   -2.6149   -0.0056 O.2       1 <0>        -0.5067
      6 C4         -3.0144   -2.3611    0.0182 C.3       1 <0>         0.0437
      7 H1         -3.5693   -1.9423   -0.8214 H         1 <0>         0.1268
      8 C5         -3.7041   -1.9776    1.3451 C.3       1 <0>         0.0507
      9 H2         -2.9665   -1.7866    2.1246 H         1 <0>         0.0947
     10 C6         -4.5311   -3.2521    1.6670 C.3       1 <0>         0.0783
     11 H3         -4.6779   -3.3642    2.7412 H         1 <0>         0.1016
     12 C7         -3.5965   -4.3569    1.1129 C.3       1 <0>         0.3238
     13 O2         -3.0056   -3.7907   -0.0698 O.3       1 <0>        -0.3330
     14 N2         -4.3702   -5.5529    0.7708 N.pl3     1 <0>        -0.4663
     15 C8         -4.8577   -5.8738   -0.4625 C.2       1 <0>         0.2634
     16 N3         -5.4963   -7.0058   -0.4069 N.2       1 <0>        -0.4566
     17 C9         -5.4598   -7.4826    0.8618 C.ar      1 <0>        -0.1514
     18 C10        -4.7324   -6.5589    1.6305 C.ar      1 <0>         0.3549
     19 N4         -4.5453   -6.7981    2.9245 N.ar      1 <0>        -0.6200
     20 C11        -5.0341   -7.8929    3.4843 C.ar      1 <0>         0.6323
     21 N5         -5.7242   -8.7929    2.7956 N.ar      1 <0>        -0.6215
     22 C12        -5.9644   -8.6291    1.4993 C.ar      1 <0>         0.5441
     23 N6         -6.6836   -9.5739    0.7890 N.pl3     1 <0>        -0.8162
     24 N7         -4.8177   -8.1070    4.8356 N.pl3     1 <0>        -0.6952
     25 C13        -5.3478   -9.3107    5.4807 C.3       1 <0>         0.1441
     26 C14        -4.9707   -9.3029    6.9635 C.3       1 <0>        -0.0853
     27 C15        -5.5160  -10.5412    7.6270 C.ar      1 <0>        -0.1036
     28 C16        -6.7823  -10.5277    8.1812 C.ar      1 <0>        -0.1104
     29 C17        -7.2825  -11.6636    8.7899 C.ar      1 <0>        -0.1198
     30 C18        -6.5165  -12.8131    8.8440 C.ar      1 <0>        -0.0611
     31 C19        -5.2506  -12.8268    8.2890 C.ar      1 <0>        -0.1196
     32 C20        -4.7520  -11.6922    7.6766 C.ar      1 <0>        -0.1102
     33 C21        -7.0615  -14.0511    9.5084 C.3       1 <0>        -0.0620
     34 C22        -7.8030  -14.9005    8.4743 C.3       1 <0>        -0.1744
     35 C23        -8.3479  -16.1385    9.1387 C.2       1 <0>         0.4893
     36 O3         -8.1605  -16.3242   10.3290 O.co2     1 <0>        -0.6990
     37 O4         -8.9761  -16.9544    8.4859 O.co2     1 <0>        -0.7060
     38 O5         -5.7828   -3.2417    0.9776 O.3       1 <0>        -0.5308
     39 O6         -4.5567   -0.8449    1.1663 O.3       1 <0>        -0.5374
     40 H4          1.0039    1.9031    0.0027 H         1 <0>         0.0773
     41 H5         -0.5459    1.8868   -0.8726 H         1 <0>         0.0634
     42 H6         -0.5289    1.8773    0.9072 H         1 <0>         0.0629
     43 H7          0.5123   -0.3556   -0.8948 H         1 <0>         0.0711
     44 H8          0.5293   -0.3651    0.8851 H         1 <0>         0.0708
     45 H9         -2.1181    0.1091    0.0229 H         1 <0>         0.3968
     46 H10        -2.8246   -4.6006    1.8429 H         1 <0>         0.1277
     47 H11        -4.7325   -5.2759   -1.3532 H         1 <0>         0.2146
     48 H12        -6.8444   -9.4488   -0.1594 H         1 <0>         0.4191
     49 H13        -7.0271  -10.3613    1.2394 H         1 <0>         0.4106
     50 H14        -4.3151   -7.4598    5.3548 H         1 <0>         0.4123
     51 H15        -6.4331   -9.3279    5.3819 H         1 <0>         0.0702
     52 H16        -4.9254  -10.1948    5.0031 H         1 <0>         0.0703
     53 H17        -3.8853   -9.2858    7.0622 H         1 <0>         0.0754
     54 H18        -5.3930   -8.4188    7.4411 H         1 <0>         0.0752
     55 H19        -7.3807   -9.6297    8.1389 H         1 <0>         0.1167
     56 H20        -8.2716  -11.6529    9.2234 H         1 <0>         0.1207
     57 H21        -4.6520  -13.7248    8.3316 H         1 <0>         0.1208
     58 H22        -3.7644  -11.7041    7.2397 H         1 <0>         0.1169
     59 H23        -6.2392  -14.6286    9.9308 H         1 <0>         0.0703
     60 H24        -7.7496  -13.7638   10.3034 H         1 <0>         0.0702
     61 H25        -8.6253  -14.3230    8.0519 H         1 <0>         0.0570
     62 H26        -7.1148  -15.1878    7.6793 H         1 <0>         0.0570
     63 H27        -6.3572   -2.5014    1.2166 H         1 <0>         0.3926
     64 H28        -4.0940   -0.0456    0.8797 H         1 <0>         0.3857
@<TRIPOS>BOND
     1    1    2 1
     2    1   40 1
     3    1   41 1
     4    1   42 1
     5    2    3 1
     6    2   43 1
     7    2   44 1
     8    3    4 am
     9    3   45 1
    10    4    5 2
    11    4    6 1
    12    6    7 1
    13    6   13 1
    14    6    8 1
    15    8    9 1
    16    8   10 1
    17    8   39 1
    18   10   11 1
    19   10   12 1
    20   10   38 1
    21   12   13 1
    22   12   14 1
    23   12   46 1
    24   14   18 1
    25   14   15 1
    26   15   16 2
    27   15   47 1
    28   16   17 1
    29   17   22 ar
    30   17   18 ar
    31   18   19 ar
    32   19   20 ar
    33   20   21 ar
    34   20   24 1
    35   21   22 ar
    36   22   23 1
    37   23   48 1
    38   23   49 1
    39   24   25 1
    40   24   50 1
    41   25   26 1
    42   25   51 1
    43   25   52 1
    44   26   27 1
    45   26   53 1
    46   26   54 1
    47   27   32 ar
    48   27   28 ar
    49   28   29 ar
    50   28   55 1
    51   29   30 ar
    52   29   56 1
    53   30   31 ar
    54   30   33 1
    55   31   32 ar
    56   31   57 1
    57   32   58 1
    58   33   34 1
    59   33   59 1
    60   33   60 1
    61   34   35 1
    62   34   61 1
    63   34   62 1
    64   35   36 2
    65   35   37 1
    66   38   63 1
    67   39   64 1
@<TRIPOS>MOLECULE
CHEMBL270314
   64    67     0     0     0
SMALL
USER_CHARGES

@<TRIPOS>ATOM
      1 C1          8.3276   -1.9632   -0.0229 C.3       1 <0>        -0.0814
      2 C2          7.2456   -3.0122   -0.0325 C.2       1 <0>         0.0272
      3 C3          7.4442   -4.3460   -0.0478 C.2       1 <0>        -0.2275
      4 C4          6.1740   -4.9523   -0.0521 C.2       1 <0>        -0.1115
      5 C5          5.2590   -3.9452   -0.0390 C.2       1 <0>         0.0081
      6 O1          5.9255   -2.7740   -0.0213 O.3       1 <0>        -0.1504
      7 C6          3.7924   -4.1072   -0.0379 C.ar      1 <0>         0.4622
      8 N1          3.2761   -5.3312   -0.0451 N.ar      1 <0>        -0.5068
      9 C7          1.9604   -5.5132   -0.0444 C.ar      1 <0>         0.4330
     10 C8          1.1213   -4.4006   -0.0358 C.ar      1 <0>        -0.2604
     11 C9          1.6977   -3.1348   -0.0284 C.ar      1 <0>         0.4563
     12 N2          3.0215   -3.0261   -0.0242 N.ar      1 <0>        -0.5428
     13 N3          0.8947   -1.9926   -0.0198 N.pl3     1 <0>        -0.3358
     14 C10         1.2507   -0.7669    0.4467 C.2       1 <0>         0.1162
     15 C11         0.1939    0.0593    0.2742 C.2       1 <0>        -0.2581
     16 C12        -0.8398   -0.6788   -0.3144 C.2       1 <0>         0.1057
     17 N4         -0.4198   -1.9040   -0.4962 N.2       1 <0>        -0.2866
     18 C13        -2.2022   -0.1499   -0.6819 C.3       1 <0>        -0.0774
     19 C14         2.5818   -0.3957    1.0479 C.3       1 <0>        -0.0890
     20 N5          1.4270   -6.7978   -0.0524 N.am      1 <0>        -0.6519
     21 C15         2.2422   -7.8653   -0.1639 C.2       1 <0>         0.5078
     22 O2          3.4451   -7.7122   -0.1643 O.2       1 <0>        -0.4637
     23 C16         1.6587   -9.2492   -0.2879 C.3       1 <0>        -0.1340
     24 C17         2.7912  -10.2721   -0.3991 C.3       1 <0>         0.0578
     25 N6          2.2224  -11.6211   -0.5200 N.3       1 <0>        -0.5006
     26 C18         1.6929  -12.0946    0.7848 C.3       1 <0>         0.0196
     27 C19         1.6433  -13.6316    0.6498 C.3       1 <0>        -0.1412
     28 C20         2.6825  -13.9722   -0.4383 C.3       1 <0>         0.0173
     29 H1          2.1987  -14.4601   -1.2844 H         1 <0>         0.1515
     30 C21         3.2726  -12.6122   -0.8691 C.3       1 <0>         0.0180
     31 N7          3.7351  -14.8355    0.1139 N.4       1 <0>        -0.3849
     32 C22         3.1407  -16.0956    0.5794 C.3       1 <0>        -0.0505
     33 C23         4.7317  -15.1194   -0.9273 C.3       1 <0>        -0.0500
     34 H2          7.8730   -0.9726   -0.0058 H         1 <0>         0.0809
     35 H3          8.9509   -2.0922    0.8620 H         1 <0>         0.0925
     36 H4          8.9413   -2.0660   -0.9178 H         1 <0>         0.0925
     37 H5          8.3977   -4.8532   -0.0557 H         1 <0>         0.1570
     38 H6          5.9658   -6.0120   -0.0639 H         1 <0>         0.1635
     39 H7          0.0478   -4.5186   -0.0354 H         1 <0>         0.1621
     40 H8          0.1544    1.1044    0.5435 H         1 <0>         0.1611
     41 H9         -2.1808    0.2311   -1.7029 H         1 <0>         0.0848
     42 H10        -2.9355   -0.9532   -0.6092 H         1 <0>         0.0775
     43 H11        -2.4759    0.6547    0.0005 H         1 <0>         0.0856
     44 H12         3.2532   -0.0531    0.2605 H         1 <0>         0.0892
     45 H13         2.4411    0.4015    1.7778 H         1 <0>         0.0849
     46 H14         3.0138   -1.2670    1.5402 H         1 <0>         0.0774
     47 H15         0.4683   -6.9254    0.0222 H         1 <0>         0.4262
     48 H16         1.0554   -9.4695    0.5927 H         1 <0>         0.1003
     49 H17         1.0333   -9.3013   -1.1791 H         1 <0>         0.1133
     50 H18         3.3945  -10.0518   -1.2798 H         1 <0>         0.0947
     51 H19         3.4166  -10.2200    0.4921 H         1 <0>         0.0575
     52 H20         2.3630  -11.8055    1.5944 H         1 <0>         0.0603
     53 H21         0.6933  -11.6956    0.9567 H         1 <0>         0.1049
     54 H22         1.9152  -14.1036    1.5939 H         1 <0>         0.0919
     55 H23         0.6495  -13.9524    0.3377 H         1 <0>         0.1128
     56 H24         3.4622  -12.6031   -1.9424 H         1 <0>         0.1152
     57 H25         4.1898  -12.4042   -0.3183 H         1 <0>         0.0661
     58 H26         2.6582  -16.6008   -0.2573 H         1 <0>         0.1245
     59 H27         3.9217  -16.7362    0.9891 H         1 <0>         0.1263
     60 H28         2.4012  -15.8850    1.3520 H         1 <0>         0.1239
     61 H29         5.1727  -14.1844   -1.2727 H         1 <0>         0.1228
     62 H30         5.5127  -15.7600   -0.5176 H         1 <0>         0.1262
     63 H31         4.2492  -15.6246   -1.7640 H         1 <0>         0.1249
     64 H32         4.1817  -14.3679    0.8884 H         1 <0>         0.4235
@<TRIPOS>BOND
     1    1    2 1
     2    1   34 1
     3    1   35 1
     4    1   36 1
     5    2    6 1
     6    2    3 2
     7    3    4 1
     8    3   37 1
     9    4    5 2
    10    4   38 1
    11    5    6 1
    12    5    7 1
    13    7   12 ar
    14    7    8 ar
    15    8    9 ar
    16    9   10 ar
    17    9   20 1
    18   10   11 ar
    19   10   39 1
    20   11   12 ar
    21   11   13 1
    22   13   17 1
    23   13   14 1
    24   14   15 2
    25   14   19 1
    26   15   16 1
    27   15   40 1
    28   16   17 2
    29   16   18 1
    30   18   41 1
    31   18   42 1
    32   18   43 1
    33   19   44 1
    34   19   45 1
    35   19   46 1
    36   20   21 am
    37   20   47 1
    38   21   22 2
    39   21   23 1
    40   23   24 1
    41   23   48 1
    42   23   49 1
    43   24   25 1
    44   24   50 1
    45   24   51 1
    46   25   30 1
    47   25   26 1
    48   26   27 1
    49   26   52 1
    50   26   53 1
    51   27   28 1
    52   27   54 1
    53   27   55 1
    54   28   29 1
    55   28   30 1
    56   28   31 1
    57   30   56 1
    58   30   57 1
    59   31   32 1
    60   31   33 1
    61   31   64 1
    62   32   58 1
    63   32   59 1
    64   32   60 1
    65   33   61 1
    66   33   62 1
    67   33   63 1
@<TRIPOS>MOLECULE
CHEMBL144360
   66    69     0     0     0
SMALL
USER_CHARGES

@<TRIPOS>ATOM
      1 C1         -0.0187    1.5258    0.0104 C.3       1 <0>        -0.1478
      2 C2          0.0021   -0.0041    0.0020 C.3       1 <0>        -0.1370
      3 C3         -1.4333   -0.5336    0.0129 C.3       1 <0>         0.1132
      4 N1         -1.4134   -1.9985    0.0048 N.am      1 <0>        -0.5482
      5 C4         -1.4101   -2.6566   -1.1731 C.2       1 <0>         0.5933
      6 O1         -1.4231   -2.0399   -2.2234 O.2       1 <0>        -0.5100
      7 C5         -1.3909   -4.0680   -1.1740 C.2       1 <0>        -0.1525
      8 C6         -1.3760   -4.7455    0.0387 C.2       1 <0>         0.3224
      9 N2         -1.3595   -6.0519   -0.2379 N.2       1 <0>        -0.4902
     10 H1         -1.3884   -4.8858   -3.1159 H         1 <0>         0.4353
     11 C7         -1.3633   -6.2307   -1.5343 C.2       1 <0>         0.3068
     12 N3         -1.3824   -5.0365   -2.1577 N.pl3     1 <0>        -0.5121
     13 C8         -1.3476   -7.5699   -2.2252 C.3       1 <0>        -0.0100
     14 C9         -0.5272   -7.4698   -3.5128 C.3       1 <0>        -0.1216
     15 C10        -0.5113   -8.8294   -4.2144 C.3       1 <0>        -0.1171
     16 C11        -1.9442   -9.2451   -4.5535 C.3       1 <0>        -0.1249
     17 C12        -2.7645   -9.3452   -3.2659 C.3       1 <0>        -0.1187
     18 C13        -2.7804   -7.9856   -2.5644 C.3       1 <0>        -0.1123
     19 N4         -1.3803   -4.0123    1.2144 N.am      1 <0>        -0.5073
     20 C14        -1.3933   -2.6667    1.1710 C.2       1 <0>         0.7078
     21 O2         -1.3920   -2.0401    2.2131 O.2       1 <0>        -0.5275
     22 C15        -1.3653   -4.7023    2.5066 C.3       1 <0>         0.1246
     23 C16         0.0823   -4.9234    2.9499 C.3       1 <0>        -0.1486
     24 C17         0.0980   -5.6439    4.2995 C.3       1 <0>         0.1240
     25 N5          1.4841   -5.8556    4.7240 N.am      1 <0>        -0.7215
     26 C18         1.7439   -6.4764    5.8917 C.2       1 <0>         0.5539
     27 O3          0.8282   -6.8607    6.5927 O.2       1 <0>        -0.5192
     28 C19         3.1428   -6.6900    6.3201 C.ar      1 <0>        -0.0732
     29 C20         4.1965   -6.2449    5.5203 C.ar      1 <0>        -0.1014
     30 C21         5.4995   -6.4469    5.9260 C.ar      1 <0>        -0.0416
     31 C22         5.7628   -7.0897    7.1226 C.ar      1 <0>        -0.6624
     32 C23         4.7229   -7.5338    7.9199 C.ar      1 <0>        -0.0140
     33 C24         3.4153   -7.3326    7.5288 C.ar      1 <0>        -0.0725
     34 S1          7.4299   -7.3442    7.6332 S.o2      1 <0>         2.6699
     35 O4          7.7990   -6.2047    8.3978 O.2       1 <0>        -0.9160
     36 O5          7.4984   -8.6651    8.1528 O.2       1 <0>        -0.9183
     37 F1          8.3423   -7.3236    6.3069 F         1 <0>        -0.4670
     38 H2          1.0039    1.9031    0.0027 H         1 <0>         0.0617
     39 H3         -0.5459    1.8868   -0.8726 H         1 <0>         0.0592
     40 H4         -0.5289    1.8773    0.9072 H         1 <0>         0.0601
     41 H5          0.5123   -0.3556   -0.8948 H         1 <0>         0.0670
     42 H6          0.5293   -0.3651    0.8851 H         1 <0>         0.0686
     43 H7         -1.9435   -0.1821    0.9097 H         1 <0>         0.1040
     44 H8         -1.9605   -0.1726   -0.8702 H         1 <0>         0.1018
     45 H9         -0.8999   -8.3136   -1.5661 H         1 <0>         0.1156
     46 H10        -0.9750   -6.7261   -4.1720 H         1 <0>         0.0638
     47 H11         0.4935   -7.1737   -3.2712 H         1 <0>         0.0721
     48 H12         0.0731   -8.7582   -5.1317 H         1 <0>         0.0696
     49 H13        -0.0636   -9.5732   -3.5552 H         1 <0>         0.0692
     50 H14        -2.3919   -8.5014   -5.2127 H         1 <0>         0.0633
     51 H15        -1.9328  -10.2137   -5.0533 H         1 <0>         0.0672
     52 H16        -3.7853   -9.6413   -3.5075 H         1 <0>         0.0696
     53 H17        -2.3168  -10.0889   -2.6067 H         1 <0>         0.0687
     54 H18        -3.3648   -8.0569   -1.6471 H         1 <0>         0.0749
     55 H19        -3.2281   -7.2419   -3.2236 H         1 <0>         0.0650
     56 H20        -1.8838   -4.0952    3.2487 H         1 <0>         0.1060
     57 H21        -1.8668   -5.6652    2.4102 H         1 <0>         0.1045
     58 H22         0.6009   -5.5304    2.2079 H         1 <0>         0.0785
     59 H23         0.5838   -3.9604    3.0463 H         1 <0>         0.0785
     60 H24        -0.4206   -5.0369    5.0416 H         1 <0>         0.0785
     61 H25        -0.4035   -6.6069    4.2031 H         1 <0>         0.0787
     62 H26         2.2148   -5.5490    4.1646 H         1 <0>         0.4016
     63 H27         3.9922   -5.7436    4.5857 H         1 <0>         0.1403
     64 H28         6.3157   -6.1030    5.3081 H         1 <0>         0.1468
     65 H29         4.9352   -8.0351    8.8527 H         1 <0>         0.1521
     66 H30         2.6044   -7.6754    8.1543 H         1 <0>         0.1546
@<TRIPOS>BOND
     1    1    2 1
     2    1   38 1
     3    1   39 1
     4    1   40 1
     5    2    3 1
     6    2   41 1
     7    2   42 1
     8    3   43 1
     9    3   44 1
    10    3    4 1
    11    4   20 am
    12    4    5 am
    13    5    6 2
    14    5    7 1
    15    7   12 1
    16    7    8 2
    17    8    9 1
    18    8   19 1
    19    9   11 2
    20   10   12 1
    21   11   12 1
    22   11   13 1
    23   13   18 1
    24   13   14 1
    25   13   45 1
    26   14   15 1
    27   14   46 1
    28   14   47 1
    29   15   16 1
    30   15   48 1
    31   15   49 1
    32   16   17 1
    33   16   50 1
    34   16   51 1
    35   17   18 1
    36   17   52 1
    37   17   53 1
    38   18   54 1
    39   18   55 1
    40   19   22 1
    41   19   20 am
    42   20   21 2
    43   22   23 1
    44   22   56 1
    45   22   57 1
    46   23   24 1
    47   23   58 1
    48   23   59 1
    49   24   25 1
    50   24   60 1
    51   24   61 1
    52   25   26 am
    53   25   62 1
    54   26   27 2
    55   26   28 1
    56   28   33 ar
    57   28   29 ar
    58   29   30 ar
    59   29   63 1
    60   30   31 ar
    61   30   64 1
    62   31   32 ar
    63   31   34 1
    64   32   33 ar
    65   32   65 1
    66   33   66 1
    67   34   35 2
    68   34   36 2
    69   34   37 1
@<TRIPOS>MOLECULE
CHEMBL604837
   55    59     0     0     0
SMALL
USER_CHARGES

@<TRIPOS>ATOM
      1 C1         -0.0164    1.3567    0.0095 C.ar      1 <0>        -0.1159
      2 C2          1.1685    2.0906    0.0021 C.ar      1 <0>        -0.1134
      3 C3          2.3785    1.4679   -0.0132 C.ar      1 <0>        -0.1099
      4 C4          2.4378    0.0637   -0.0214 C.ar      1 <0>        -0.0430
      5 C5          1.2328   -0.6827   -0.0134 C.ar      1 <0>        -0.0516
      6 C6          0.0021   -0.0041    0.0020 C.ar      1 <0>        -0.1058
      7 C7          1.2920   -2.0865   -0.0210 C.ar      1 <0>        -0.1044
      8 C8          2.5022   -2.7094   -0.0359 C.ar      1 <0>        -0.1147
      9 C9          3.6867   -1.9757   -0.0433 C.ar      1 <0>        -0.1060
     10 C10         3.6681   -0.6146   -0.0367 C.ar      1 <0>        -0.0707
     11 C11         4.9603    0.1606   -0.0459 C.3       1 <0>        -0.0823
     12 C12         5.3473    0.5240    1.3890 C.3       1 <0>         0.0834
     13 O1          6.5726    1.2592    1.3803 O.3       1 <0>        -0.2830
     14 C13         7.0580    1.6602    2.5802 C.ar      1 <0>         0.5701
     15 N1          6.3843    1.3496    3.6787 N.ar      1 <0>        -0.6300
     16 C14         6.8183    1.7196    4.8784 C.ar      1 <0>         0.5427
     17 C15         8.0149    2.4525    4.9633 C.ar      1 <0>        -0.1381
     18 C16         8.6936    2.7579    3.7724 C.ar      1 <0>         0.3541
     19 N2          8.1888    2.3425    2.6146 N.ar      1 <0>        -0.5528
     20 N3          9.8083    3.4666    4.1429 N.pl3     1 <0>        -0.4689
     21 C17         9.7897    3.5764    5.5025 C.2       1 <0>         0.2567
     22 N4          8.7369    2.9809    5.9817 N.2       1 <0>        -0.4527
     23 C18        10.8313    4.0059    3.2436 C.3       1 <0>         0.3156
     24 C19        11.9555    2.9649    3.0091 C.3       1 <0>         0.0777
     25 H1         12.1632    2.4046    3.9207 H         1 <0>         0.0908
     26 C20        13.1563    3.8646    2.6280 C.3       1 <0>         0.0451
     27 H2         14.0710    3.4973    3.0932 H         1 <0>         0.0878
     28 C21        12.7838    5.2500    3.1906 C.3       1 <0>         0.0527
     29 H3         12.6934    5.9687    2.3761 H         1 <0>         0.0990
     30 O2         11.5210    5.1125    3.8635 O.3       1 <0>        -0.3481
     31 C22        13.8553    5.7156    4.1784 C.3       1 <0>         0.0773
     32 O3         13.5626    7.0474    4.6059 O.3       1 <0>        -0.5628
     33 O4         13.3071    3.9225    1.2081 O.3       1 <0>        -0.5351
     34 O5         11.6179    2.0826    1.9369 O.3       1 <0>        -0.5200
     35 N5          6.1080    1.3911    6.0195 N.pl3     1 <0>        -0.8127
     36 H4         -0.9634    1.8756    0.0259 H         1 <0>         0.1234
     37 H5          1.1258    3.1698    0.0084 H         1 <0>         0.1234
     38 H6          3.2883    2.0497   -0.0195 H         1 <0>         0.1283
     39 H7         -0.9241   -0.5595    0.0082 H         1 <0>         0.1273
     40 H8          0.3820   -2.6682   -0.0147 H         1 <0>         0.1275
     41 H9          2.5450   -3.7886   -0.0417 H         1 <0>         0.1251
     42 H10         4.6338   -2.4947   -0.0548 H         1 <0>         0.1253
     43 H11         5.7467   -0.4491   -0.4909 H         1 <0>         0.0888
     44 H12         4.8331    1.0722   -0.6299 H         1 <0>         0.0879
     45 H13         4.5609    1.1338    1.8340 H         1 <0>         0.0733
     46 H14         5.4745   -0.3875    1.9730 H         1 <0>         0.0737
     47 H15        10.5383    4.0829    6.0938 H         1 <0>         0.2234
     48 H16        10.3857    4.3129    2.2974 H         1 <0>         0.1250
     49 H17        13.8665    5.0510    5.0423 H         1 <0>         0.0591
     50 H18        14.8307    5.6962    3.6923 H         1 <0>         0.0661
     51 H19        14.2022    7.4081    5.2351 H         1 <0>         0.3859
     52 H20        14.0452    4.4731    0.9131 H         1 <0>         0.3858
     53 H21        12.2906    1.4130    1.7519 H         1 <0>         0.3869
     54 H22         5.2834    0.8853    5.9486 H         1 <0>         0.4111
     55 H23         6.4347    1.6666    6.8903 H         1 <0>         0.4216
@<TRIPOS>BOND
     1    1    6 ar
     2    1    2 ar
     3    1   36 1
     4    2    3 ar
     5    2   37 1
     6    3    4 ar
     7    3   38 1
     8    4   10 ar
     9    4    5 ar
    10    5    6 ar
    11    5    7 ar
    12    6   39 1
    13    7    8 ar
    14    7   40 1
    15    8    9 ar
    16    8   41 1
    17    9   10 ar
    18    9   42 1
    19   10   11 1
    20   11   12 1
    21   11   43 1
    22   11   44 1
    23   12   13 1
    24   12   45 1
    25   12   46 1
    26   13   14 1
    27   14   19 ar
    28   14   15 ar
    29   15   16 ar
    30   16   17 ar
    31   16   35 1
    32   17   22 1
    33   17   18 ar
    34   18   19 ar
    35   18   20 1
    36   20   21 1
    37   20   23 1
    38   21   22 2
    39   21   47 1
    40   23   30 1
    41   23   24 1
    42   23   48 1
    43   24   25 1
    44   24   26 1
    45   24   34 1
    46   26   27 1
    47   26   28 1
    48   26   33 1
    49   28   29 1
    50   28   30 1
    51   28   31 1
    52   31   32 1
    53   31   49 1
    54   31   50 1
    55   32   51 1
    56   33   52 1
    57   34   53 1
    58   35   54 1
    59   35   55 1
